
 /INPUT FILE= C:\Users\long\AppData\Local\Temp\tmp_rmipnbzjyv.inp  LINE=       0

 /INPUT FILE= top2d_rinf.txt  LINE=       0

 Current working directory switched to D:\CodeSave\GitCode\Topology-optimization-of-structure-via-simp-methodNEW\ANSYS\results                                                                                                                                                                 

 RESUME ANSYS DATA FROM FILE NAME=D:\CodeSave\GitCode\Topology-optimization-of-structure-via-simp-methodNEW\ANSYS\models\complex2D_grid.db                                                                                                                                                            

 *** ANSYS GLOBAL STATUS *** 

 TITLE =  File: H:\MATERTHESIS\ANSYS_SD\APDL_SCRIPT\ANSYS_GUI\VERSATILE_SIMP\2D
 ANALYSIS TYPE =  STATIC (STEADY-STATE)
 NUMBER OF ELEMENT TYPES =      1
      3005 ELEMENTS CURRENTLY SELECTED.  MAX ELEMENT NUMBER =        3005
      3198 NODES CURRENTLY SELECTED.     MAX NODE NUMBER =           3198
        15 KEYPOINTS CURRENTLY SELECTED. MAX KEYPOINT NUMBER =         15
        15 LINES CURRENTLY SELECTED.     MAX LINE NUMBER =             15
         1 AREAS CURRENTLY SELECTED.     MAX AREA NUMBER =              1
 MAXIMUM LINEAR PROPERTY NUMBER        =       1
 ACTIVE COORDINATE SYSTEM              =       0  (CARTESIAN)  
 MAXIMUM COUPLED D.O.F. SET NUMBER     =       2
 NUMBER OF SPECIFIED CONSTRAINTS       =     180
 NUMBER OF NODAL LOADS                 =      25
 CURRENT LOAD CASE =      0 OF      0
 LOAD SET   =       1
 SUBSTEP    =       1
 TIME/FREQ  =    1.0000    

 INITIAL JOBNAME = file
 CURRENT JOBNAME = file

 CURRENT JOBNAME REDEFINED AS top2d
     Opening new LOG, ERROR, LOCK and PAGE FILES

 TITLE= 
 top2d                                                                         


 *GET  ELEMSUM   FROM  ELEM  ITEM=COUN           VALUE=  3005.00000    

 *GET  NODESUM   FROM  NODE  ITEM=COUN       VALUE=  3198.00000     

 SET PARAMETER DIMENSIONS ON  MATERIAL TYPE=ARRA  DIMENSIONS=  3005     2     1

 VECTOR READ OPERATION  *VREAD  
  MATERIAL READ FROM FILE material.txt
 VECTOR LENGTH=      2
 NUMBER OF COLUMNS=   3005
 LOOP DIRECTIONS=JIK   COUNTS=       2    3005       1
 FORMAT=(E14.7,E15.7)                                                         

 *** ANSYS - ENGINEERING ANALYSIS SYSTEM  RELEASE 2020 R2          20.2     ***
 DISTRIBUTED ANSYS Mechanical Enterprise                       

 20120530  VERSION=WINDOWS x64   01:29:24  OCT 30, 2023 CP=      0.391

 top2d                                                                         



          ***** ANSYS ANALYSIS DEFINITION (PREP7) *****

 *DO LOOP ON PARAMETER= I FROM  1.0000     TO  3005.0     BY  1.0000    

 MATERIAL          1     EX   =  0.6400000E-01  

 MATERIAL          1     PRXY =  0.3000000      

 *** WARNING ***                         CP =       0.391   TIME= 01:29:24
 Poisson's ratio NU set for material 1 deleted.                          

 *ENDDO  INDEX= I                               

 *DO LOOP ON PARAMETER= I FROM  1.0000     TO  3005.0     BY  1.0000    

 MODIFY ELEMENT         1 (IF SELECTED) TO HAVE  MAT  =      1

 *ENDDO  INDEX= I                               


 ***** ROUTINE COMPLETED *****  CP =         0.766



 *****  ANSYS SOLUTION ROUTINE  *****


 PERFORM A STATIC ANALYSIS
  THIS WILL BE A NEW ANALYSIS

                       S O L U T I O N   O P T I O N S

   PROBLEM DIMENSIONALITY. . . . . . . . . . . . .2-D                  
   DEGREES OF FREEDOM. . . . . . UX   UY  
   ANALYSIS TYPE . . . . . . . . . . . . . . . . .STATIC (STEADY-STATE)
   GLOBALLY ASSEMBLED MATRIX . . . . . . . . . . .SYMMETRIC  

                      L O A D   S T E P   O P T I O N S

   LOAD STEP NUMBER. . . . . . . . . . . . . . . .     1
   TIME AT END OF THE LOAD STEP. . . . . . . . . .  1.0000    
   NUMBER OF SUBSTEPS. . . . . . . . . . . . . . .     1
   STEP CHANGE BOUNDARY CONDITIONS . . . . . . . .DEFAULT
   PRINT OUTPUT CONTROLS . . . . . . . . . . . . .NO PRINTOUT
   DATABASE OUTPUT CONTROLS. . . . . . . . . . . .ALL DATA WRITTEN
                                                  FOR THE LAST SUBSTEP


 *** NOTE ***                            CP =       0.781   TIME= 01:29:24
 The automatic domain decomposition logic has selected the MESH domain   
 decomposition method with 2 processes per solution.                     

 *****  ANSYS SOLVE    COMMAND  *****

 TRANSFER SOLID MODEL BOUNDARY CONDITIONS TO FINITE ELEMENT MODEL
      CONSTRAINTS    TRANSFERRED FROM LINES         =    184

 *** WARNING ***                         CP =       0.812   TIME= 01:29:24
 Previous testing revealed that 5 of the 3005 selected elements violate  
 shape warning limits.  To review warning messages, please see the       
 output or error file, or issue the CHECK command.                       

 *** NOTE ***                            CP =       0.812   TIME= 01:29:24
 The model data was checked and warning messages were found.             
  Please review output or errors file (                                  
 D:\CodeSave\GitCode\Topology-optimization-of-structure-via-simp-methodN 
 NEW\ANSYS\results\top2d0.err ) for these warning messages.              

 *** SELECTION OF ELEMENT TECHNOLOGIES FOR APPLICABLE ELEMENTS ***
                ---GIVE SUGGESTIONS ONLY---

 ELEMENT TYPE  1 IS PLANE182 WITH PLANE STRAIN OPTION. IT IS ASSOCIATED WITH
 LINEAR MATERIALS ONLY AND POISSON'S RATIO IS NOT GREATER THAN 0.49.
 KEYOPT(1)=3 IS SUGGESTED.



 *** ANSYS - ENGINEERING ANALYSIS SYSTEM  RELEASE 2020 R2          20.2     ***
 DISTRIBUTED ANSYS Mechanical Enterprise                       

 20120530  VERSION=WINDOWS x64   01:29:24  OCT 30, 2023 CP=      0.828

 top2d                                                                         



                       S O L U T I O N   O P T I O N S

   PROBLEM DIMENSIONALITY. . . . . . . . . . . . .2-D                  
   DEGREES OF FREEDOM. . . . . . UX   UY  
   ANALYSIS TYPE . . . . . . . . . . . . . . . . .STATIC (STEADY-STATE)
   GLOBALLY ASSEMBLED MATRIX . . . . . . . . . . .SYMMETRIC  

 *** NOTE ***                            CP =       0.859   TIME= 01:29:24
 Present time 0 is less than or equal to the previous time.  Time will   
 default to 1.                                                           

 *** NOTE ***                            CP =       0.859   TIME= 01:29:24
 The conditions for direct assembly have been met.  No .emat or .erot    
 files will be produced.                                                 

  
  
     D I S T R I B U T E D   D O M A I N   D E C O M P O S E R
  
  ...Number of elements: 3005
  ...Number of nodes:    3198
  ...Decompose to 2 CPU domains
  ...Element load balance ratio =     1.001


                      L O A D   S T E P   O P T I O N S

   LOAD STEP NUMBER. . . . . . . . . . . . . . . .     1
   TIME AT END OF THE LOAD STEP. . . . . . . . . .  1.0000    
   NUMBER OF SUBSTEPS. . . . . . . . . . . . . . .     1
   STEP CHANGE BOUNDARY CONDITIONS . . . . . . . .    NO
   PRINT OUTPUT CONTROLS . . . . . . . . . . . . .NO PRINTOUT
   DATABASE OUTPUT CONTROLS. . . . . . . . . . . .ALL DATA WRITTEN
                                                  FOR THE LAST SUBSTEP


 SOLUTION MONITORING INFO IS WRITTEN TO FILE= top2d.mntr                                                                                                                                                                                                                                                          


 Range of element maximum matrix coefficients in global coordinates
 Maximum = 0.144300534 at element 2971.                                  
 Minimum = 3.430029563E-02 at element 1819.                              

   *** ELEMENT MATRIX FORMULATION TIMES
     TYPE    NUMBER   ENAME      TOTAL CP  AVE CP

        1      3005  PLANE182      0.078   0.000026
 Time at end of element matrix formulation CP = 0.96875.                 

 DISTRIBUTED SPARSE MATRIX DIRECT SOLVER.
  Number of equations =        6128,    Maximum wavefront =     16

  Local memory allocated for solver              =      3.239 MB
  Local memory required for in-core solution     =      3.123 MB
  Local memory required for out-of-core solution =      1.906 MB

  Total memory allocated for solver              =      6.444 MB
  Total memory required for in-core solution     =      6.213 MB
  Total memory required for out-of-core solution =      3.825 MB

 *** NOTE ***                            CP =       1.047   TIME= 01:29:24
 The Distributed Sparse Matrix Solver is currently running in the        
 in-core memory mode.  This memory mode uses the most amount of memory   
 in order to avoid using the hard drive as much as possible, which most  
 often results in the fastest solution time.  This mode is recommended   
 if enough physical memory is present to accommodate all of the solver   
 data.                                                                   
 Distributed sparse solver maximum pivot= 0.266514373 at node 2817 UX.   
 Distributed sparse solver minimum pivot= 1.242282652E-02 at node 1263   
 UX.                                                                     
 Distributed sparse solver minimum pivot in absolute value=              
 1.242282652E-02 at node 1263 UX.                                        

   *** ELEMENT RESULT CALCULATION TIMES
     TYPE    NUMBER   ENAME      TOTAL CP  AVE CP

        1      3005  PLANE182      0.062   0.000021

   *** NODAL LOAD CALCULATION TIMES
     TYPE    NUMBER   ENAME      TOTAL CP  AVE CP

        1      3005  PLANE182      0.000   0.000000
 *** LOAD STEP     1   SUBSTEP     1  COMPLETED.    CUM ITER =      1
 *** TIME =   1.00000         TIME INC =   1.00000      NEW TRIANG MATRIX


 *** ANSYS BINARY FILE STATISTICS
  BUFFER SIZE USED= 16384
        0.562 MB WRITTEN ON ASSEMBLED MATRIX FILE: top2d0.full
        3.438 MB WRITTEN ON RESULTS FILE: top2d0.rst

 FINISH SOLUTION PROCESSING


 ***** ROUTINE COMPLETED *****  CP =         1.062



 *** ANSYS - ENGINEERING ANALYSIS SYSTEM  RELEASE 2020 R2          20.2     ***
 DISTRIBUTED ANSYS Mechanical Enterprise                       

 20120530  VERSION=WINDOWS x64   01:29:25  OCT 30, 2023 CP=      1.062

 top2d                                                                         



          ***** ANSYS RESULTS INTERPRETATION (POST1) *****

 *** NOTE ***                            CP =       1.062   TIME= 01:29:25
 Reading results into the database (SET command) will update the current 
 displacement and force boundary conditions in the database with the     
 values from the results file for that load set.  Note that any          
 subsequent solutions will use these values unless action is taken to    
 either SAVE the current values or not overwrite them (/EXIT,NOSAVE).    

 STORE STRAIN_E FROM ITEM=SENE  FOR ALL SELECTED ELEMENTS

 VECTOR GET OPERATION  strain_e  VECTOR LENGTH=    3005
 NAME= ELEM         1  ETAB  STRAIN_E
 ITLVL=       2

 OPENED FILE= strain_energy.txt FOR COMMAND FILE DATA 


  COMMAND FILE CLOSED 


 SET PARAMETER DIMENSIONS ON  NODAL_SOLUTION_STRESS
  TYPE=ARRA  DIMENSIONS=     3198        1        1

 VECTOR GET OPERATION  NODAL_SOLUTION_STRESS(1,1)  VECTOR LENGTH=    3198
 NAME= NODE         1  S     EQV 

 *** WARNING ***                         CP =       1.062   TIME= 01:29:25
 The selected element set contains mixed materials.                      
  This could invalidate error estimation.                                

 OPENED FILE= nodal_solution_stress.txt FOR COMMAND FILE DATA 


  COMMAND FILE CLOSED 


 SET PARAMETER DIMENSIONS ON  NODAL_SOLUTION_STRAIN
  TYPE=ARRA  DIMENSIONS=     3198        1        1

 VECTOR GET OPERATION  NODAL_SOLUTION_STRAIN(1,1)  VECTOR LENGTH=    3198
 NAME= NODE         1  EPTO  INT 

 OPENED FILE= nodal_solution_strain.txt FOR COMMAND FILE DATA 


  COMMAND FILE CLOSED 


 SET PARAMETER DIMENSIONS ON  NODAL_SOLUTION_U
  TYPE=ARRA  DIMENSIONS=     3198        2        1

 VECTOR GET OPERATION  NODAL_SOLUTION_U(1,1)  VECTOR LENGTH=    3198
 NAME= NODE         1  U     X   

 VECTOR GET OPERATION  NODAL_SOLUTION_U(1,2)  VECTOR LENGTH=    3198
 NAME= NODE         1  U     Y   

 OPENED FILE= nodal_solution_u.txt FOR COMMAND FILE DATA 


  COMMAND FILE CLOSED 


 OPENED FILE= testout.txt FOR COMMAND FILE DATA 


  COMMAND FILE CLOSED 


 ALL CURRENT ANSYS DATA WRITTEN TO FILE NAME= top2d.db
  FOR POSSIBLE RESUME FROM THIS POINT

 EXIT THE ANSYS POST1 DATABASE PROCESSOR


 ***** ROUTINE COMPLETED *****  CP =         1.172



 PURGE ALL SOLUTION AND POST DATA
 SAVE ALL MODEL DATA

 ALL CURRENT ANSYS DATA WRITTEN TO FILE NAME= top2d.db
  FOR POSSIBLE RESUME FROM THIS POINT


 NUMBER OF WARNING MESSAGES ENCOUNTERED=          3
 NUMBER OF ERROR   MESSAGES ENCOUNTERED=          0

+--------- D I S T R I B U T E D   A N S Y S   S T A T I S T I C S ------------+

Release: 2020 R2            Build: 20.2       Update: UP20200601   Platform: WINDOWS x64 
Date Run: 10/30/2023   Time: 01:29     Process ID: 25892
Operating System: Windows 10  (Build: 22621)

Processor Model: AMD Ryzen 7 7735H with Radeon Graphics

Compiler: Intel(R) FORTRAN Compiler Version 19.0.0  (Build: 20190206)
          Intel(R) C/C++ Compiler Version 19.0.0  (Build: 20190206)
          Intel(R) Math Kernel Library Version 2020.0.0 Product Build 20191125

Number of machines requested            :    1
Total number of cores available         :   16
Number of physical cores available      :    8
Number of processes requested           :    2
Number of threads per process requested :    1
Total number of cores requested         :    2 (Distributed Memory Parallel)               
MPI Type: INTELMPI
MPI Version: Intel(R) MPI Library 2018 Update 3 for Windows* OS


GPU Acceleration: Not Requested

Job Name: top2d0
Input File: .__tmp__.inp

  Core                Machine Name   Working Directory
 -----------------------------------------------------
     0                   sivertong   D:\CodeSave\GitCode\Topology-optimization-of-structure-via-simp-methodNEW\ANSYS\results
     1                   sivertong   D:\CodeSave\GitCode\Topology-optimization-of-structure-via-simp-methodNEW\ANSYS\results
 
Latency time from master to core     1 =    2.007 microseconds
 
Communication speed from master to core     1 =  7899.13 MB/sec

Total CPU time for main thread                    :        0.6 seconds
Total CPU time summed for all threads             :        1.2 seconds

Elapsed time spent obtaining a license            :       10.9 seconds
Elapsed time spent pre-processing model (/PREP7)  :        0.3 seconds
Elapsed time spent solution - preprocessing       :        0.1 seconds
Elapsed time spent computing solution             :        0.3 seconds
Elapsed time spent solution - postprocessing      :        0.0 seconds
Elapsed time spent post-processing model (/POST1) :        0.2 seconds
Elapsed time spent post-processing model (/POST26):        0.0 seconds
 
Equation solver used                              :            Sparse (symmetric)

Maximum total memory used                         :      290.0 MB
Maximum total memory allocated                    :     3136.0 MB
Total physical memory available                   :         15 GB

Total amount of I/O written to disk               :        0.0 GB
Total amount of I/O read from disk                :        0.0 GB

+------ E N D   D I S T R I B U T E D   A N S Y S   S T A T I S T I C S -------+
