
 ***** SOLUTION DEBUG LEVELS=   0   0   1   0   0   0   0   0   0
                                0   0   0   0   0   0   0   0   0

                       S O L U T I O N   O P T I O N S

   PROBLEM DIMENSIONALITY. . . . . . . . . . . . .2-D                  
   DEGREES OF FREEDOM. . . . . . UX   UY  
   ANALYSIS TYPE . . . . . . . . . . . . . . . . .STATIC (STEADY-STATE)
   GLOBALLY ASSEMBLED MATRIX . . . . . . . . . . .SYMMETRIC  

                      L O A D   S T E P   O P T I O N S

   LOAD STEP NUMBER. . . . . . . . . . . . . . . .     1
   TIME AT END OF THE LOAD STEP. . . . . . . . . .  1.0000    
   NUMBER OF SUBSTEPS. . . . . . . . . . . . . . .     1
   STEP CHANGE BOUNDARY CONDITIONS . . . . . . . .DEFAULT
   PRINT OUTPUT CONTROLS . . . . . . . . . . . . .NO PRINTOUT
   DATABASE OUTPUT CONTROLS. . . . . . . . . . . .ALL DATA WRITTEN
                                                  FOR THE LAST SUBSTEP


 *** NOTE ***                            CP =       0.188   TIME= 16:40:16
 The automatic domain decomposition logic has selected the MESH domain   
 decomposition method with 2 processes per solution.                     

 *****  ANSYS SOLVE    COMMAND  *****

 TRANSFER SOLID MODEL BOUNDARY CONDITIONS TO FINITE ELEMENT MODEL
      CONSTRAINTS    TRANSFERRED FROM LINES         =    184

 *** WARNING ***                         CP =       0.188   TIME= 16:40:16
 Previous testing revealed that 5 of the 3005 selected elements violate  
 shape warning limits.  To review warning messages, please see the       
 output or error file, or issue the CHECK command.                       

 *** NOTE ***                            CP =       0.188   TIME= 16:40:16
 The model data was checked and warning messages were found.             
  Please review output or errors file (                                  
 D:\CodeSave\GitCode\Topology-optimization-of-structure-via-simp-methodN 
 NEW\ANSYS\results\top2d0.err ) for these warning messages.              

 *** SELECTION OF ELEMENT TECHNOLOGIES FOR APPLICABLE ELEMENTS ***
                ---GIVE SUGGESTIONS ONLY---

 ELEMENT TYPE  1 IS PLANE182 WITH PLANE STRAIN OPTION. IT IS ASSOCIATED WITH
 LINEAR MATERIALS ONLY AND POISSON'S RATIO IS NOT GREATER THAN 0.49.
 KEYOPT(1)=3 IS SUGGESTED.



 *** ANSYS - ENGINEERING ANALYSIS SYSTEM  RELEASE 2020 R2          20.2     ***
 DISTRIBUTED ANSYS Mechanical Enterprise                       

 20120530  VERSION=WINDOWS x64   16:40:16  NOV 01, 2023 CP=      0.188

 top2d                                                                         



                       S O L U T I O N   O P T I O N S

   PROBLEM DIMENSIONALITY. . . . . . . . . . . . .2-D                  
   DEGREES OF FREEDOM. . . . . . UX   UY  
   ANALYSIS TYPE . . . . . . . . . . . . . . . . .STATIC (STEADY-STATE)
   GLOBALLY ASSEMBLED MATRIX . . . . . . . . . . .SYMMETRIC  

 *** NOTE ***                            CP =       0.188   TIME= 16:40:16
 Present time 0 is less than or equal to the previous time.  Time will   
 default to 1.                                                           

 *** NOTE ***                            CP =       0.188   TIME= 16:40:16
 The conditions for direct assembly have been met.  No .emat or .erot    
 files will be produced.                                                 

  
  
     D I S T R I B U T E D   D O M A I N   D E C O M P O S E R
  
  ...Number of elements: 3005
  ...Number of nodes:    3198
  ...Decompose to 2 CPU domains
  ...Element load balance ratio =     1.001


                      L O A D   S T E P   O P T I O N S

   LOAD STEP NUMBER. . . . . . . . . . . . . . . .     1
   TIME AT END OF THE LOAD STEP. . . . . . . . . .  1.0000    
   NUMBER OF SUBSTEPS. . . . . . . . . . . . . . .     1
   STEP CHANGE BOUNDARY CONDITIONS . . . . . . . .    NO
   PRINT OUTPUT CONTROLS . . . . . . . . . . . . .NO PRINTOUT
   DATABASE OUTPUT CONTROLS. . . . . . . . . . . .ALL DATA WRITTEN
                                                  FOR THE LAST SUBSTEP


 SOLUTION MONITORING INFO IS WRITTEN TO FILE= top2d.mntr                                                                                                                                                                                                                                                          


      STIFFNESS MATRIX FOR ELEMENT      834          PLANE182
   1   0.7765912E+04 -0.4219158E+04  0.1133400E+04  0.3311940E+03 -0.5108680E+04  0.4219158E+04
      -0.3790632E+04 -0.3311940E+03
   2  -0.4219158E+04  0.1142302E+05 -0.1591883E+04 -0.8799803E+04  0.4219158E+04 -0.8765792E+04
       0.1591883E+04  0.6142572E+04
   3   0.1133400E+04 -0.1591883E+04  0.1028304E+05  0.5384148E+04 -0.3794375E+04  0.1591883E+04
      -0.7622065E+04 -0.5384148E+04
   4   0.3311940E+03 -0.8799803E+04  0.5384148E+04  0.1198190E+05 -0.3311940E+03  0.6138829E+04
      -0.5384148E+04 -0.9320923E+04
   5  -0.5108680E+04  0.4219158E+04 -0.3794375E+04 -0.3311940E+03  0.7811075E+04 -0.4219158E+04
       0.1091980E+04  0.3311940E+03
   6   0.4219158E+04 -0.8765792E+04  0.1591883E+04  0.6138829E+04 -0.4219158E+04  0.1146819E+05
      -0.1591883E+04 -0.8841224E+04
   7  -0.3790632E+04  0.1591883E+04 -0.7622065E+04 -0.5384148E+04  0.1091980E+04 -0.1591883E+04
       0.1032072E+05  0.5384148E+04
   8  -0.3311940E+03  0.6142572E+04 -0.5384148E+04 -0.9320923E+04  0.3311940E+03 -0.8841224E+04
       0.5384148E+04  0.1201957E+05

      STIFFNESS MATRIX FOR ELEMENT      833          PLANE182
   1   0.7758662E+04 -0.4195710E+04  0.1314568E+04  0.6562701E+03 -0.5212016E+04  0.4195710E+04
      -0.3861214E+04 -0.6562701E+03
   2  -0.4195710E+04  0.1062348E+05 -0.1266807E+04 -0.8637292E+04  0.4195710E+04 -0.8076837E+04
       0.1266807E+04  0.6090645E+04
   3   0.1314568E+04 -0.1266807E+04  0.1031049E+05  0.5486728E+04 -0.4022682E+04  0.1266807E+04
      -0.7602378E+04 -0.5486728E+04
   4   0.6562701E+03 -0.8637292E+04  0.5486728E+04  0.1260868E+05 -0.6562701E+03  0.5929177E+04
      -0.5486728E+04 -0.9900563E+04
   5  -0.5212016E+04  0.4195710E+04 -0.4022682E+04 -0.6562701E+03  0.8021662E+04 -0.4195710E+04
       0.1213036E+04  0.6562701E+03
   6   0.4195710E+04 -0.8076837E+04  0.1266807E+04  0.5929177E+04 -0.4195710E+04  0.1088648E+05
      -0.1266807E+04 -0.8738823E+04
   7  -0.3861214E+04  0.1266807E+04 -0.7602378E+04 -0.5486728E+04  0.1213036E+04 -0.1266807E+04
       0.1025056E+05  0.5486728E+04
   8  -0.6562701E+03  0.6090645E+04 -0.5486728E+04 -0.9900563E+04  0.6562701E+03 -0.8738823E+04
       0.5486728E+04  0.1254874E+05

      STIFFNESS MATRIX FOR ELEMENT      969          PLANE182
   1   0.7815373E+04 -0.4317905E+04  0.1055582E+04 -0.6672454E+02 -0.5165870E+04  0.4317905E+04
      -0.3705085E+04  0.6672454E+02
   2  -0.4317905E+04  0.1245881E+05 -0.1989801E+04 -0.8755869E+04  0.4317905E+04 -0.9809303E+04
       0.1989801E+04  0.6106366E+04
   3   0.1055582E+04 -0.1989801E+04  0.1009870E+05  0.5108167E+04 -0.3676668E+04  0.1989801E+04
      -0.7477615E+04 -0.5108167E+04
   4  -0.6672454E+02 -0.8755869E+04  0.5108167E+04  0.1091899E+05  0.6672454E+02  0.6134783E+04
      -0.5108167E+04 -0.8297902E+04
   5  -0.5165870E+04  0.4317905E+04 -0.3676668E+04  0.6672454E+02  0.7864597E+04 -0.4317905E+04
       0.9779408E+03 -0.6672454E+02
   6   0.4317905E+04 -0.9809303E+04  0.1989801E+04  0.6134783E+04 -0.4317905E+04  0.1250803E+05
      -0.1989801E+04 -0.8833510E+04
   7  -0.3705085E+04  0.1989801E+04 -0.7477615E+04 -0.5108167E+04  0.9779408E+03 -0.1989801E+04
       0.1020476E+05  0.5108167E+04
   8   0.6672454E+02  0.6106366E+04 -0.5108167E+04 -0.8297902E+04 -0.6672454E+02 -0.8833510E+04
       0.5108167E+04  0.1102505E+05

      STIFFNESS MATRIX FOR ELEMENT      828          PLANE182
   1   0.8104320E+04 -0.4200287E+04  0.1877609E+04  0.1218142E+04 -0.5688232E+04  0.4200287E+04
      -0.4293697E+04 -0.1218142E+04
   2  -0.4200287E+04  0.9398337E+04 -0.7049345E+03 -0.7930238E+04  0.4200287E+04 -0.6982250E+04
       0.7049345E+03  0.5514150E+04
   3   0.1877609E+04 -0.7049345E+03  0.1013339E+05  0.5487258E+04 -0.4566329E+04  0.7049345E+03
      -0.7444666E+04 -0.5487258E+04
   4   0.1218142E+04 -0.7930238E+04  0.5487258E+04  0.1302225E+05 -0.1218142E+04  0.5241518E+04
      -0.5487258E+04 -0.1033353E+05
   5  -0.5688232E+04  0.4200287E+04 -0.4566329E+04 -0.1218142E+04  0.8571050E+04 -0.4200287E+04
       0.1683511E+04  0.1218142E+04
   6   0.4200287E+04 -0.6982250E+04  0.7049345E+03  0.5241518E+04 -0.4200287E+04  0.9865068E+04
      -0.7049345E+03 -0.8124336E+04
   7  -0.4293697E+04  0.7049345E+03 -0.7444666E+04 -0.5487258E+04  0.1683511E+04 -0.7049345E+03
       0.1005485E+05  0.5487258E+04
   8  -0.1218142E+04  0.5514150E+04 -0.5487258E+04 -0.1033353E+05  0.1218142E+04 -0.8124336E+04
       0.5487258E+04  0.1294372E+05

      STIFFNESS MATRIX FOR ELEMENT      974          PLANE182
   1   0.8449434E+04 -0.4565079E+04  0.1683784E+04 -0.1466533E+03 -0.5650892E+04  0.4565079E+04
      -0.4482325E+04  0.1466533E+03
   2  -0.4565079E+04  0.1258141E+05 -0.2069730E+04 -0.7867393E+04  0.4565079E+04 -0.9782864E+04
       0.2069730E+04  0.5068851E+04
   3   0.1683784E+04 -0.2069730E+04  0.1002794E+05  0.4794181E+04 -0.4237165E+04  0.2069730E+04
      -0.7474562E+04 -0.4794181E+04
   4  -0.1466533E+03 -0.7867393E+04  0.4794181E+04  0.9730106E+04  0.1466533E+03  0.5314011E+04
      -0.4794181E+04 -0.7176724E+04
   5  -0.5650892E+04  0.4565079E+04 -0.4237165E+04  0.1466533E+03  0.8087688E+04 -0.4565079E+04
       0.1800369E+04 -0.1466533E+03
   6   0.4565079E+04 -0.9782864E+04  0.2069730E+04  0.5314011E+04 -0.4565079E+04  0.1221966E+05
      -0.2069730E+04 -0.7750807E+04
   7  -0.4482325E+04  0.2069730E+04 -0.7474562E+04 -0.4794181E+04  0.1800369E+04 -0.2069730E+04
       0.1015652E+05  0.4794181E+04
   8   0.1466533E+03  0.5068851E+04 -0.4794181E+04 -0.7176724E+04 -0.1466533E+03 -0.7750807E+04
       0.4794181E+04  0.9858681E+04

      STIFFNESS MATRIX FOR ELEMENT      842          PLANE182
   1   0.8910682E+04 -0.4028100E+04  0.2664245E+04  0.2058192E+04 -0.6548329E+04  0.4028100E+04
      -0.5026599E+04 -0.2058192E+04
   2  -0.4028100E+04  0.7847411E+04  0.1351154E+03 -0.6745048E+04  0.4028100E+04 -0.5485058E+04
      -0.1351154E+03  0.4382694E+04
   3   0.2664245E+04  0.1351154E+03  0.9826871E+04  0.5439600E+04 -0.5305636E+04 -0.1351154E+03
      -0.7185479E+04 -0.5439600E+04
   4   0.2058192E+04 -0.6745048E+04  0.5439600E+04  0.1351439E+05 -0.2058192E+04  0.4103656E+04
      -0.5439600E+04 -0.1087300E+05
   5  -0.6548329E+04  0.4028100E+04 -0.5305636E+04 -0.2058192E+04  0.9423184E+04 -0.4028100E+04
       0.2430781E+04  0.2058192E+04
   6   0.4028100E+04 -0.5485058E+04 -0.1351154E+03  0.4103656E+04 -0.4028100E+04  0.8359913E+04
       0.1351154E+03 -0.6978512E+04
   7  -0.5026599E+04 -0.1351154E+03 -0.7185479E+04 -0.5439600E+04  0.2430781E+04  0.1351154E+03
       0.9781297E+04  0.5439600E+04
   8  -0.2058192E+04  0.4382694E+04 -0.5439600E+04 -0.1087300E+05  0.2058192E+04 -0.6978512E+04
       0.5439600E+04  0.1346882E+05

      STIFFNESS MATRIX FOR ELEMENT      975          PLANE182
   1   0.1028727E+05 -0.5735108E+04  0.2028049E+04 -0.3560669E+03 -0.7445426E+04  0.5735108E+04
      -0.4869891E+04  0.3560669E+03
   2  -0.5735108E+04  0.1518614E+05 -0.2279144E+04 -0.7302109E+04  0.5735108E+04 -0.1234430E+05
       0.2279144E+04  0.4460267E+04
   3   0.2028049E+04 -0.2279144E+04  0.8862709E+04  0.3727536E+04 -0.4885984E+04  0.2279144E+04
      -0.6004774E+04 -0.3727536E+04
   4  -0.3560669E+03 -0.7302109E+04  0.3727536E+04  0.7759644E+04  0.3560669E+03  0.4444173E+04
      -0.3727536E+04 -0.4901709E+04
   5  -0.7445426E+04  0.5735108E+04 -0.4885984E+04  0.3560669E+03  0.9947024E+04 -0.5735108E+04
       0.2384386E+04 -0.3560669E+03
   6   0.5735108E+04 -0.1234430E+05  0.2279144E+04  0.4444173E+04 -0.5735108E+04  0.1484590E+05
      -0.2279144E+04 -0.6945772E+04
   7  -0.4869891E+04  0.2279144E+04 -0.6004774E+04 -0.3727536E+04  0.2384386E+04 -0.2279144E+04
       0.8490279E+04  0.3727536E+04
   8   0.3560669E+03  0.4460267E+04 -0.3727536E+04 -0.4901709E+04 -0.3560669E+03 -0.6945772E+04
       0.3727536E+04  0.7387214E+04

      STIFFNESS MATRIX FOR ELEMENT      841          PLANE182
   1   0.1003066E+05 -0.3584512E+04  0.3748562E+04  0.2816580E+04 -0.7670066E+04  0.3584512E+04
      -0.6109154E+04 -0.2816580E+04
   2  -0.3584512E+04  0.6489492E+04  0.8935035E+03 -0.5143282E+04  0.3584512E+04 -0.4128899E+04
      -0.8935035E+03  0.2782689E+04
   3   0.3748562E+04  0.8935035E+03  0.1002150E+05  0.5488257E+04 -0.6517476E+04 -0.8935035E+03
      -0.7252590E+04 -0.5488257E+04
   4   0.2816580E+04 -0.5143282E+04  0.5488257E+04  0.1380295E+05 -0.2816580E+04  0.2374367E+04
      -0.5488257E+04 -0.1103404E+05
   5  -0.7670066E+04  0.3584512E+04 -0.6517476E+04 -0.2816580E+04  0.1054794E+05 -0.3584512E+04
       0.3639598E+04  0.2816580E+04
   6   0.3584512E+04 -0.4128899E+04 -0.8935035E+03  0.2374367E+04 -0.3584512E+04  0.7006778E+04
       0.8935035E+03 -0.5252246E+04
   7  -0.6109154E+04 -0.8935035E+03 -0.7252590E+04 -0.5488257E+04  0.3639598E+04  0.8935035E+03
       0.9722147E+04  0.5488257E+04
   8  -0.2816580E+04  0.2782689E+04 -0.5488257E+04 -0.1103404E+05  0.2816580E+04 -0.5252246E+04
       0.5488257E+04  0.1350360E+05

      STIFFNESS MATRIX FOR ELEMENT     2129          PLANE182
   1   0.1300105E+05  0.2717174E+04 -0.1030423E+05  0.3433736E+04 -0.1055874E+05 -0.2717174E+04
       0.7861915E+04 -0.3433736E+04
   2   0.2717174E+04  0.5591584E+04  0.1510659E+04 -0.7874251E+03 -0.2717174E+04 -0.3149269E+04
      -0.1510659E+04 -0.1654890E+04
   3  -0.1030423E+05  0.1510659E+04  0.1271187E+05 -0.6257290E+04  0.7280197E+04 -0.1510659E+04
      -0.9687841E+04  0.6257290E+04
   4   0.3433736E+04 -0.7874251E+03 -0.6257290E+04  0.1296642E+05 -0.3433736E+04 -0.2236607E+04
       0.6257290E+04 -0.9942388E+04
   5  -0.1055874E+05 -0.2717174E+04  0.7280197E+04 -0.3433736E+04  0.1392744E+05  0.2717174E+04
      -0.1064890E+05  0.3433736E+04
   6  -0.2717174E+04 -0.3149269E+04 -0.1510659E+04 -0.2236607E+04  0.2717174E+04  0.6517975E+04
       0.1510659E+04 -0.1132100E+04
   7   0.7861915E+04 -0.1510659E+04 -0.9687841E+04  0.6257290E+04 -0.1064890E+05  0.1510659E+04
       0.1247483E+05 -0.6257290E+04
   8  -0.3433736E+04 -0.1654890E+04  0.6257290E+04 -0.9942388E+04  0.3433736E+04 -0.1132100E+04
      -0.6257290E+04  0.1272938E+05

      STIFFNESS MATRIX FOR ELEMENT      836          PLANE182
   1   0.1117421E+05 -0.2740391E+04  0.4521627E+04  0.3827012E+04 -0.8851076E+04  0.2740391E+04
      -0.6844760E+04 -0.3827012E+04
   2  -0.2740391E+04  0.5302976E+04  0.1903935E+04 -0.3430056E+04  0.2740391E+04 -0.2979843E+04
      -0.1903935E+04  0.1106923E+04
   3   0.4521627E+04  0.1903935E+04  0.9622527E+04  0.5438264E+04 -0.7203656E+04 -0.1903935E+04
      -0.6940499E+04 -0.5438264E+04
   4   0.3827012E+04 -0.3430056E+04  0.5438264E+04  0.1460042E+05 -0.3827012E+04  0.7480275E+03
      -0.5438264E+04 -0.1191839E+05
   5  -0.8851076E+04  0.2740391E+04 -0.7203656E+04 -0.3827012E+04  0.1187176E+05 -0.2740391E+04
       0.4182975E+04  0.3827012E+04
   6   0.2740391E+04 -0.2979843E+04 -0.1903935E+04  0.7480275E+03 -0.2740391E+04  0.6000524E+04
       0.1903935E+04 -0.3768708E+04
   7  -0.6844760E+04 -0.1903935E+04 -0.6940499E+04 -0.5438264E+04  0.4182975E+04  0.1903935E+04
       0.9602284E+04  0.5438264E+04
   8  -0.3827012E+04  0.1106923E+04 -0.5438264E+04 -0.1191839E+05  0.3827012E+04 -0.3768708E+04
       0.5438264E+04  0.1458017E+05

      STIFFNESS MATRIX FOR ELEMENT      835          PLANE182
   1   0.8238322E+04 -0.4226869E+04  0.3216906E+04  0.2834591E+03 -0.5692168E+04  0.4226869E+04
      -0.5763061E+04 -0.2834591E+03
   2  -0.4226869E+04  0.9721346E+04 -0.1639618E+04 -0.6307406E+04  0.4226869E+04 -0.7175192E+04
       0.1639618E+04  0.3761251E+04
   3   0.3216906E+04 -0.1639618E+04  0.1157012E+05  0.5359550E+04 -0.5785411E+04  0.1639618E+04
      -0.9001612E+04 -0.5359550E+04
   4   0.2834591E+03 -0.6307406E+04  0.5359550E+04  0.1039475E+05 -0.2834591E+03  0.3738901E+04
      -0.5359550E+04 -0.7826242E+04
   5  -0.5692168E+04  0.4226869E+04 -0.5785411E+04 -0.2834591E+03  0.8310505E+04 -0.4226869E+04
       0.3167074E+04  0.2834591E+03
   6   0.4226869E+04 -0.7175192E+04  0.1639618E+04  0.3738901E+04 -0.4226869E+04  0.9793529E+04
      -0.1639618E+04 -0.6357238E+04
   7  -0.5763061E+04  0.1639618E+04 -0.9001612E+04 -0.5359550E+04  0.3167074E+04 -0.1639618E+04
       0.1159760E+05  0.5359550E+04
   8  -0.2834591E+03  0.3761251E+04 -0.5359550E+04 -0.7826242E+04  0.2834591E+03 -0.6357238E+04
       0.5359550E+04  0.1042223E+05

      STIFFNESS MATRIX FOR ELEMENT      832          PLANE182
   1   0.8129064E+04 -0.4066224E+04  0.2846128E+04  0.5298382E+03 -0.5442247E+04  0.4066224E+04
      -0.5532945E+04 -0.5298382E+03
   2  -0.4066224E+04  0.9483347E+04 -0.1393239E+04 -0.6757890E+04  0.4066224E+04 -0.6796529E+04
       0.1393239E+04  0.4071073E+04
   3   0.2846128E+04 -0.1393239E+04  0.1145496E+05  0.5638534E+04 -0.5370757E+04  0.1393239E+04
      -0.8930334E+04 -0.5638534E+04
   4   0.5298382E+03 -0.6757890E+04  0.5638534E+04  0.1129365E+05 -0.5298382E+03  0.4233260E+04
      -0.5638534E+04 -0.8769018E+04
   5  -0.5442247E+04  0.4066224E+04 -0.5370757E+04 -0.5298382E+03  0.7963145E+04 -0.4066224E+04
       0.2849859E+04  0.5298382E+03
   6   0.4066224E+04 -0.6796529E+04  0.1393239E+04  0.4233260E+04 -0.4066224E+04  0.9317427E+04
      -0.1393239E+04 -0.6754158E+04
   7  -0.5532945E+04  0.1393239E+04 -0.8930334E+04 -0.5638534E+04  0.2849859E+04 -0.1393239E+04
       0.1161342E+05  0.5638534E+04
   8  -0.5298382E+03  0.4071073E+04 -0.5638534E+04 -0.8769018E+04  0.5298382E+03 -0.6754158E+04
       0.5638534E+04  0.1145210E+05

      STIFFNESS MATRIX FOR ELEMENT      829          PLANE182
   1   0.7823199E+04 -0.4114003E+04  0.2221137E+04  0.4953932E+03 -0.5282183E+04  0.4114003E+04
      -0.4762153E+04 -0.4953932E+03
   2  -0.4114003E+04  0.9929807E+04 -0.1427684E+04 -0.7465700E+04  0.4114003E+04 -0.7388791E+04
       0.1427684E+04  0.4924684E+04
   3   0.2221137E+04 -0.1427684E+04  0.1102234E+05  0.5565532E+04 -0.4845306E+04  0.1427684E+04
      -0.8398174E+04 -0.5565532E+04
   4   0.4953932E+03 -0.7465700E+04  0.5565532E+04  0.1167704E+05 -0.4953932E+03  0.4841531E+04
      -0.5565532E+04 -0.9052875E+04
   5  -0.5282183E+04  0.4114003E+04 -0.4845306E+04 -0.4953932E+03  0.7980169E+04 -0.4114003E+04
       0.2147320E+04  0.4953932E+03
   6   0.4114003E+04 -0.7388791E+04  0.1427684E+04  0.4841531E+04 -0.4114003E+04  0.1008678E+05
      -0.1427684E+04 -0.7539517E+04
   7  -0.4762153E+04  0.1427684E+04 -0.8398174E+04 -0.5565532E+04  0.2147320E+04 -0.1427684E+04
       0.1101301E+05  0.5565532E+04
   8  -0.4953932E+03  0.4924684E+04 -0.5565532E+04 -0.9052875E+04  0.4953932E+03 -0.7539517E+04
       0.5565532E+04  0.1166771E+05

      STIFFNESS MATRIX FOR ELEMENT      970          PLANE182
   1   0.8057975E+04 -0.4408441E+04  0.2697623E+04 -0.2631386E+03 -0.5576449E+04  0.4408441E+04
      -0.5179148E+04  0.2631386E+03
   2  -0.4408441E+04  0.1115468E+05 -0.2186215E+04 -0.6633317E+04  0.4408441E+04 -0.8673159E+04
       0.2186215E+04  0.4151792E+04
   3   0.2697623E+04 -0.2186215E+04  0.1117096E+05  0.4902883E+04 -0.5322131E+04  0.2186215E+04
      -0.8546449E+04 -0.4902883E+04
   4  -0.2631386E+03 -0.6633317E+04  0.4902883E+04  0.9430665E+04  0.2631386E+03  0.4008809E+04
      -0.4902883E+04 -0.6806157E+04
   5  -0.5576449E+04  0.4408441E+04 -0.5322131E+04  0.2631386E+03  0.8244047E+04 -0.4408441E+04
       0.2654534E+04 -0.2631386E+03
   6   0.4408441E+04 -0.8673159E+04  0.2186215E+04  0.4008809E+04 -0.4408441E+04  0.1134076E+05
      -0.2186215E+04 -0.6676407E+04
   7  -0.5179148E+04  0.2186215E+04 -0.8546449E+04 -0.4902883E+04  0.2654534E+04 -0.2186215E+04
       0.1107106E+05  0.4902883E+04
   8   0.2631386E+03  0.4151792E+04 -0.4902883E+04 -0.6806157E+04 -0.2631386E+03 -0.6676407E+04
       0.4902883E+04  0.9330772E+04

      STIFFNESS MATRIX FOR ELEMENT      843          PLANE182
   1   0.8330255E+04 -0.4375912E+04  0.2731604E+04  0.9175440E+03 -0.6135948E+04  0.4375912E+04
      -0.4925911E+04 -0.9175440E+03
   2  -0.4375912E+04  0.9388566E+04 -0.1005533E+04 -0.6943187E+04  0.4375912E+04 -0.7194259E+04
       0.1005533E+04  0.4748881E+04
   3   0.2731604E+04 -0.1005533E+04  0.1041751E+05  0.5281635E+04 -0.5432657E+04  0.1005533E+04
      -0.7716452E+04 -0.5281635E+04
   4   0.9175440E+03 -0.6943187E+04  0.5281635E+04  0.1150033E+05 -0.9175440E+03  0.4242134E+04
      -0.5281635E+04 -0.8799275E+04
   5  -0.6135948E+04  0.4375912E+04 -0.5432657E+04 -0.9175440E+03  0.9144840E+04 -0.4375912E+04
       0.2423766E+04  0.9175440E+03
   6   0.4375912E+04 -0.7194259E+04  0.1005533E+04  0.4242134E+04 -0.4375912E+04  0.1020315E+05
      -0.1005533E+04 -0.7251026E+04
   7  -0.4925911E+04  0.1005533E+04 -0.7716452E+04 -0.5281635E+04  0.2423766E+04 -0.1005533E+04
       0.1021860E+05  0.5281635E+04
   8  -0.9175440E+03  0.4748881E+04 -0.5281635E+04 -0.8799275E+04  0.9175440E+03 -0.7251026E+04
       0.5281635E+04  0.1130142E+05

      STIFFNESS MATRIX FOR ELEMENT      771          PLANE182
   1   0.9472432E+04  0.5076011E+04 -0.6753802E+04 -0.3194604E+04 -0.6337404E+04 -0.5076011E+04
       0.3618774E+04  0.3194604E+04
   2   0.5076011E+04  0.1851672E+05 -0.5117681E+04 -0.1281381E+04 -0.5076011E+04 -0.1538169E+05
       0.5117681E+04 -0.1853647E+04
   3  -0.6753802E+04 -0.5117681E+04  0.1167109E+05 -0.1150586E+04  0.3707711E+04  0.5117681E+04
      -0.8625003E+04  0.1150586E+04
   4  -0.3194604E+04 -0.1281381E+04 -0.1150586E+04  0.4759742E+04  0.3194604E+04 -0.1764710E+04
       0.1150586E+04 -0.1713652E+04
   5  -0.6337404E+04 -0.5076011E+04  0.3707711E+04  0.3194604E+04  0.8793695E+04  0.5076011E+04
      -0.6164003E+04 -0.3194604E+04
   6  -0.5076011E+04 -0.1538169E+05  0.5117681E+04 -0.1764710E+04  0.5076011E+04  0.1783798E+05
      -0.5117681E+04 -0.6915815E+03
   7   0.3618774E+04  0.5117681E+04 -0.8625003E+04  0.1150586E+04 -0.6164003E+04 -0.5117681E+04
       0.1117023E+05 -0.1150586E+04
   8   0.3194604E+04 -0.1853647E+04  0.1150586E+04 -0.1713652E+04 -0.3194604E+04 -0.6915815E+03
      -0.1150586E+04  0.4258881E+04

      STIFFNESS MATRIX FOR ELEMENT      840          PLANE182
   1   0.1111736E+05 -0.4491441E+04  0.5547226E+04  0.1659971E+04 -0.9015629E+04  0.4491441E+04
      -0.7648955E+04 -0.1659971E+04
   2  -0.4491441E+04  0.7791618E+04 -0.2631055E+03 -0.4188835E+04  0.4491441E+04 -0.5689889E+04
       0.2631055E+03  0.2087106E+04
   3   0.5547226E+04 -0.2631055E+03  0.1112289E+05  0.5037603E+04 -0.8532785E+04  0.2631055E+03
      -0.8137327E+04 -0.5037603E+04
   4   0.1659971E+04 -0.4188835E+04  0.5037603E+04  0.1042071E+05 -0.1659971E+04  0.1203276E+04
      -0.5037603E+04 -0.7435150E+04
   5  -0.9015629E+04  0.4491441E+04 -0.8532785E+04 -0.1659971E+04  0.1221292E+05 -0.4491441E+04
       0.5335498E+04  0.1659971E+04
   6   0.4491441E+04 -0.5689889E+04  0.2631055E+03  0.1203276E+04 -0.4491441E+04  0.8887176E+04
      -0.2631055E+03 -0.4400563E+04
   7  -0.7648955E+04  0.2631055E+03 -0.8137327E+04 -0.5037603E+04  0.5335498E+04 -0.2631055E+03
       0.1045078E+05  0.5037603E+04
   8  -0.1659971E+04  0.2087106E+04 -0.5037603E+04 -0.7435150E+04  0.1659971E+04 -0.4400563E+04
       0.5037603E+04  0.9748607E+04

      STIFFNESS MATRIX FOR ELEMENT      973          PLANE182
   1   0.8428258E+04 -0.4433615E+04  0.3220418E+04 -0.9034276E+02 -0.5852604E+04  0.4433615E+04
      -0.5796072E+04  0.9034276E+02
   2  -0.4433615E+04  0.1057817E+05 -0.2013420E+04 -0.6163481E+04  0.4433615E+04 -0.8002517E+04
       0.2013420E+04  0.3587827E+04
   3   0.3220418E+04 -0.2013420E+04  0.1149776E+05  0.4963771E+04 -0.5856114E+04  0.2013420E+04
      -0.8862066E+04 -0.4963771E+04
   4  -0.9034276E+02 -0.6163481E+04  0.4963771E+04  0.9452069E+04  0.9034276E+02  0.3527785E+04
      -0.4963771E+04 -0.6816372E+04
   5  -0.5852604E+04  0.4433615E+04 -0.5856114E+04  0.9034276E+02  0.8413645E+04 -0.4433615E+04
       0.3295073E+04 -0.9034276E+02
   6   0.4433615E+04 -0.8002517E+04  0.2013420E+04  0.3527785E+04 -0.4433615E+04  0.1056356E+05
      -0.2013420E+04 -0.6088826E+04
   7  -0.5796072E+04  0.2013420E+04 -0.8862066E+04 -0.4963771E+04  0.3295073E+04 -0.2013420E+04
       0.1136306E+05  0.4963771E+04
   8   0.9034276E+02  0.3587827E+04 -0.4963771E+04 -0.6816372E+04 -0.9034276E+02 -0.6088826E+04
       0.4963771E+04  0.9317372E+04

      STIFFNESS MATRIX FOR ELEMENT     2130          PLANE182
   1   0.1761839E+05  0.1956989E+04 -0.1179507E+05  0.4448641E+04 -0.1466085E+05 -0.1956989E+04
       0.8837524E+04 -0.4448641E+04
   2   0.1956989E+04  0.6480122E+04  0.2525564E+04 -0.2638628E+04 -0.1956989E+04 -0.3522581E+04
      -0.2525564E+04 -0.3189127E+03
   3  -0.1179507E+05  0.2525564E+04  0.1134160E+05 -0.5597385E+04  0.8631665E+04 -0.2525564E+04
      -0.8178203E+04  0.5597385E+04
   4   0.4448641E+04 -0.2638628E+04 -0.5597385E+04  0.1211509E+05 -0.4448641E+04 -0.5247723E+03
       0.5597385E+04 -0.8951687E+04
   5  -0.1466085E+05 -0.1956989E+04  0.8631665E+04 -0.4448641E+04  0.1784629E+05  0.1956989E+04
      -0.1181710E+05  0.4448641E+04
   6  -0.1956989E+04 -0.3522581E+04 -0.2525564E+04 -0.5247723E+03  0.1956989E+04  0.6708019E+04
       0.2525564E+04 -0.2660665E+04
   7   0.8837524E+04 -0.2525564E+04 -0.8178203E+04  0.5597385E+04 -0.1181710E+05  0.2525564E+04
       0.1115778E+05 -0.5597385E+04
   8  -0.4448641E+04 -0.3189127E+03  0.5597385E+04 -0.8951687E+04  0.4448641E+04 -0.2660665E+04
      -0.5597385E+04  0.1193127E+05

      STIFFNESS MATRIX FOR ELEMENT      837          PLANE182
   1   0.1209034E+05 -0.2597953E+04  0.5356290E+04  0.3846011E+04 -0.9348371E+04  0.2597953E+04
      -0.8098259E+04 -0.3846011E+04
   2  -0.2597953E+04  0.5615670E+04  0.1922934E+04 -0.2817907E+04  0.2597953E+04 -0.2873700E+04
      -0.1922934E+04  0.7593751E+02
   3   0.5356290E+04  0.1922934E+04  0.9947320E+04  0.5694377E+04 -0.7775592E+04 -0.1922934E+04
      -0.7528018E+04 -0.5694377E+04
   4   0.3846011E+04 -0.2817907E+04  0.5694377E+04  0.1390708E+05 -0.3846011E+04  0.3986042E+03
      -0.5694377E+04 -0.1148778E+05
   5  -0.9348371E+04  0.2597953E+04 -0.7775592E+04 -0.3846011E+04  0.1204882E+05 -0.2597953E+04
       0.5075141E+04  0.3846011E+04
   6   0.2597953E+04 -0.2873700E+04 -0.1922934E+04  0.3986042E+03 -0.2597953E+04  0.5574151E+04
       0.1922934E+04 -0.3099055E+04
   7  -0.8098259E+04 -0.1922934E+04 -0.7528018E+04 -0.5694377E+04  0.5075141E+04  0.1922934E+04
       0.1055114E+05  0.5694377E+04
   8  -0.3846011E+04  0.7593751E+02 -0.5694377E+04 -0.1148778E+05  0.3846011E+04 -0.3099055E+04
       0.5694377E+04  0.1451089E+05

      STIFFNESS MATRIX FOR ELEMENT      976          PLANE182
   1   0.8958926E+04 -0.5044404E+04  0.3365512E+04 -0.1039808E+04 -0.6425861E+04  0.5044404E+04
      -0.5898577E+04  0.1039808E+04
   2  -0.5044404E+04  0.1326663E+05 -0.2962885E+04 -0.5380626E+04  0.5044404E+04 -0.1073357E+05
       0.2962885E+04  0.2847562E+04
   3   0.3365512E+04 -0.2962885E+04  0.1066233E+05  0.3788063E+04 -0.5877759E+04  0.2962885E+04
      -0.8150079E+04 -0.3788063E+04
   4  -0.1039808E+04 -0.5380626E+04  0.3788063E+04  0.6957182E+04  0.1039808E+04  0.2868380E+04
      -0.3788063E+04 -0.4444936E+04
   5  -0.6425861E+04  0.5044404E+04 -0.5877759E+04  0.1039808E+04  0.9068158E+04 -0.5044404E+04
       0.3235462E+04 -0.1039808E+04
   6   0.5044404E+04 -0.1073357E+05  0.2962885E+04  0.2868380E+04 -0.5044404E+04  0.1337587E+05
      -0.2962885E+04 -0.5510677E+04
   7  -0.5898577E+04  0.2962885E+04 -0.8150079E+04 -0.3788063E+04  0.3235462E+04 -0.2962885E+04
       0.1081319E+05  0.3788063E+04
   8   0.1039808E+04  0.2847562E+04 -0.3788063E+04 -0.4444936E+04 -0.1039808E+04 -0.5510677E+04
       0.3788063E+04  0.7108050E+04

      STIFFNESS MATRIX FOR ELEMENT     2128          PLANE182
   1   0.1413448E+05  0.3375629E+04 -0.9764338E+04  0.3163066E+04 -0.1145345E+05 -0.3375629E+04
       0.7083310E+04 -0.3163066E+04
   2   0.3375629E+04  0.6621681E+04  0.1239989E+04 -0.2784531E+03 -0.3375629E+04 -0.3940653E+04
      -0.1239989E+04 -0.2402575E+04
   3  -0.9764338E+04  0.1239989E+04  0.1093397E+05 -0.5411489E+04  0.7015606E+04 -0.1239989E+04
      -0.8185241E+04  0.5411489E+04
   4   0.3163066E+04 -0.2784531E+03 -0.5411489E+04  0.1126323E+05 -0.3163066E+04 -0.2470279E+04
       0.5411489E+04 -0.8514494E+04
   5  -0.1145345E+05 -0.3375629E+04  0.7015606E+04 -0.3163066E+04  0.1435500E+05  0.3375629E+04
      -0.9917153E+04  0.3163066E+04
   6  -0.3375629E+04 -0.3940653E+04 -0.1239989E+04 -0.2470279E+04  0.3375629E+04  0.6842201E+04
       0.1239989E+04 -0.4312683E+03
   7   0.7083310E+04 -0.1239989E+04 -0.8185241E+04  0.5411489E+04 -0.9917153E+04  0.1239989E+04
       0.1101908E+05 -0.5411489E+04
   8  -0.3163066E+04 -0.2402575E+04  0.5411489E+04 -0.8514494E+04  0.3163066E+04 -0.4312683E+03
      -0.5411489E+04  0.1134834E+05

      STIFFNESS MATRIX FOR ELEMENT      633          PLANE182
   1   0.8157794E+04  0.4323442E+04 -0.7140226E+04 -0.3909615E+04 -0.5112288E+04 -0.4323442E+04
       0.4094721E+04  0.3909615E+04
   2   0.4323442E+04  0.1576783E+05 -0.5832692E+04 -0.2905436E+04 -0.4323442E+04 -0.1272233E+05
       0.5832692E+04 -0.1400703E+03
   3  -0.7140226E+04 -0.5832692E+04  0.1428941E+05  0.1420703E+03  0.5310544E+04  0.5832692E+04
      -0.1245972E+05 -0.1420703E+03
   4  -0.3909615E+04 -0.2905436E+04  0.1420703E+03  0.4496793E+04  0.3909615E+04  0.1075754E+04
      -0.1420703E+03 -0.2667111E+04
   5  -0.5112288E+04 -0.4323442E+04  0.5310544E+04  0.3909615E+04  0.7878432E+04  0.4323442E+04
      -0.8076688E+04 -0.3909615E+04
   6  -0.4323442E+04 -0.1272233E+05  0.5832692E+04  0.1075754E+04  0.4323442E+04  0.1548847E+05
      -0.5832692E+04 -0.3841897E+04
   7   0.4094721E+04  0.5832692E+04 -0.1245972E+05 -0.1420703E+03 -0.8076688E+04 -0.5832692E+04
       0.1644169E+05  0.1420703E+03
   8   0.3909615E+04 -0.1400703E+03 -0.1420703E+03 -0.2667111E+04 -0.3909615E+04 -0.3841897E+04
       0.1420703E+03  0.6649079E+04

      STIFFNESS MATRIX FOR ELEMENT      489          PLANE182
   1   0.1905123E+05  0.1758344E+04 -0.1137045E+05  0.4734682E+04 -0.1600799E+05 -0.1758344E+04
       0.8327213E+04 -0.4734682E+04
   2   0.1758344E+04  0.6843972E+04  0.2811605E+04 -0.2830710E+04 -0.1758344E+04 -0.3800740E+04
      -0.2811605E+04 -0.2125228E+03
   3  -0.1137045E+05  0.2811605E+04  0.1008167E+05 -0.5048669E+04  0.8164430E+04 -0.2811605E+04
      -0.6875653E+04  0.5048669E+04
   4   0.4734682E+04 -0.2830710E+04 -0.5048669E+04  0.1168142E+05 -0.4734682E+04 -0.3753062E+03
       0.5048669E+04 -0.8475401E+04
   5  -0.1600799E+05 -0.1758344E+04  0.8164430E+04 -0.4734682E+04  0.1908078E+05  0.1758344E+04
      -0.1123722E+05  0.4734682E+04
   6  -0.1758344E+04 -0.3800740E+04 -0.2811605E+04 -0.3753062E+03  0.1758344E+04  0.6873526E+04
       0.2811605E+04 -0.2697481E+04
   7   0.8327213E+04 -0.2811605E+04 -0.6875653E+04  0.5048669E+04 -0.1123722E+05  0.2811605E+04
       0.9785656E+04 -0.5048669E+04
   8  -0.4734682E+04 -0.2125228E+03  0.5048669E+04 -0.8475401E+04  0.4734682E+04 -0.2697481E+04
      -0.5048669E+04  0.1138540E+05

      STIFFNESS MATRIX FOR ELEMENT      839          PLANE182
   1   0.7069108E+04 -0.4340454E+04  0.4047865E+04 -0.1218817E+04 -0.5548725E+04  0.4340454E+04
      -0.5568249E+04  0.1218817E+04
   2  -0.4340454E+04  0.1083707E+05 -0.3141894E+04 -0.4541457E+04  0.4340454E+04 -0.9316686E+04
       0.3141894E+04  0.3021073E+04
   3   0.4047865E+04 -0.3141894E+04  0.1265968E+05  0.4229961E+04 -0.6729148E+04  0.3141894E+04
      -0.9978398E+04 -0.4229961E+04
   4  -0.1218817E+04 -0.4541457E+04  0.4229961E+04  0.7702313E+04  0.1218817E+04  0.1860174E+04
      -0.4229961E+04 -0.5021030E+04
   5  -0.5548725E+04  0.4340454E+04 -0.6729148E+04  0.1218817E+04  0.9329616E+04 -0.4340454E+04
       0.2948256E+04 -0.1218817E+04
   6   0.4340454E+04 -0.9316686E+04  0.3141894E+04  0.1860174E+04 -0.4340454E+04  0.1309758E+05
      -0.3141894E+04 -0.5641066E+04
   7  -0.5568249E+04  0.3141894E+04 -0.9978398E+04 -0.4229961E+04  0.2948256E+04 -0.3141894E+04
       0.1259839E+05  0.4229961E+04
   8   0.1218817E+04  0.3021073E+04 -0.4229961E+04 -0.5021030E+04 -0.1218817E+04 -0.5641066E+04
       0.4229961E+04  0.7641023E+04

      STIFFNESS MATRIX FOR ELEMENT      838          PLANE182
   1   0.1123726E+05 -0.1929437E+04  0.4863133E+04  0.4409840E+04 -0.8512105E+04  0.1929437E+04
      -0.7588289E+04 -0.4409840E+04
   2  -0.1929437E+04  0.4849712E+04  0.2486763E+04 -0.2316219E+04  0.1929437E+04 -0.2124556E+04
      -0.2486763E+04 -0.4089368E+03
   3   0.4863133E+04  0.2486763E+04  0.9576568E+04  0.5816788E+04 -0.7014256E+04 -0.2486763E+04
      -0.7425445E+04 -0.5816788E+04
   4   0.4409840E+04 -0.2316219E+04  0.5816788E+04  0.1598161E+05 -0.4409840E+04  0.1650964E+03
      -0.5816788E+04 -0.1383049E+05
   5  -0.8512105E+04  0.1929437E+04 -0.7014256E+04 -0.4409840E+04  0.1138310E+05 -0.1929437E+04
       0.4143264E+04  0.4409840E+04
   6   0.1929437E+04 -0.2124556E+04 -0.2486763E+04  0.1650964E+03 -0.1929437E+04  0.4995549E+04
       0.2486763E+04 -0.3036089E+04
   7  -0.7588289E+04 -0.2486763E+04 -0.7425445E+04 -0.5816788E+04  0.4143264E+04  0.2486763E+04
       0.1087047E+05  0.5816788E+04
   8  -0.4409840E+04 -0.4089368E+03 -0.5816788E+04 -0.1383049E+05  0.4409840E+04 -0.3036089E+04
       0.5816788E+04  0.1727551E+05

      STIFFNESS MATRIX FOR ELEMENT       18          PLANE182
   1   0.1135605E+05  0.5330093E+04 -0.5596669E+04  0.1650302E+04 -0.8827687E+04 -0.5330093E+04
       0.3068306E+04 -0.1650302E+04
   2   0.5330093E+04  0.1038683E+05 -0.2727749E+03  0.3933132E+04 -0.5330093E+04 -0.7858465E+04
       0.2727749E+03 -0.6461494E+04
   3  -0.5596669E+04 -0.2727749E+03  0.8294329E+04 -0.4247489E+04  0.2961768E+04  0.2727749E+03
      -0.5659428E+04  0.4247489E+04
   4   0.1650302E+04  0.3933132E+04 -0.4247489E+04  0.9984882E+04 -0.1650302E+04 -0.6568033E+04
       0.4247489E+04 -0.7349980E+04
   5  -0.8827687E+04 -0.5330093E+04  0.2961768E+04 -0.1650302E+04  0.1146425E+05  0.5330093E+04
      -0.5598331E+04  0.1650302E+04
   6  -0.5330093E+04 -0.7858465E+04  0.2727749E+03 -0.6568033E+04  0.5330093E+04  0.1049503E+05
      -0.2727749E+03  0.3931470E+04
   7   0.3068306E+04  0.2727749E+03 -0.5659428E+04  0.4247489E+04 -0.5598331E+04 -0.2727749E+03
       0.8189452E+04 -0.4247489E+04
   8  -0.1650302E+04 -0.6461494E+04  0.4247489E+04 -0.7349980E+04  0.1650302E+04  0.3931470E+04
      -0.4247489E+04  0.9880005E+04

      STIFFNESS MATRIX FOR ELEMENT      661          PLANE182
   1   0.1495460E+05  0.2135389E+04  0.3443909E+04  0.6319104E+04 -0.1175169E+05 -0.2135389E+04
      -0.6646824E+04 -0.6319104E+04
   2   0.2135389E+04  0.6125056E+04  0.4396027E+04  0.3373592E+04 -0.2135389E+04 -0.2922141E+04
      -0.4396027E+04 -0.6576507E+04
   3   0.3443909E+04  0.4396027E+04  0.5719777E+04  0.2617606E+04 -0.5028740E+04 -0.4396027E+04
      -0.4134945E+04 -0.2617606E+04
   4   0.6319104E+04  0.3373592E+04  0.2617606E+04  0.1619038E+05 -0.6319104E+04 -0.4958423E+04
      -0.2617606E+04 -0.1460555E+05
   5  -0.1175169E+05 -0.2135389E+04 -0.5028740E+04 -0.6319104E+04  0.1453935E+05  0.2135389E+04
       0.2241072E+04  0.6319104E+04
   6  -0.2135389E+04 -0.2922141E+04 -0.4396027E+04 -0.4958423E+04  0.2135389E+04  0.5709809E+04
       0.4396027E+04  0.2170755E+04
   7  -0.6646824E+04 -0.4396027E+04 -0.4134945E+04 -0.2617606E+04  0.2241072E+04  0.4396027E+04
       0.8540698E+04  0.2617606E+04
   8  -0.6319104E+04 -0.6576507E+04 -0.2617606E+04 -0.1460555E+05  0.6319104E+04  0.2170755E+04
       0.2617606E+04  0.1901130E+05

      STIFFNESS MATRIX FOR ELEMENT      831          PLANE182
   1   0.1166174E+05  0.5768794E+04 -0.5801459E+04  0.1114364E+04 -0.9065269E+04 -0.5768794E+04
       0.3204984E+04 -0.1114364E+04
   2   0.5768794E+04  0.1169090E+05 -0.8087133E+03  0.3814729E+04 -0.5768794E+04 -0.9094423E+04
       0.8087133E+03 -0.6411204E+04
   3  -0.5801459E+04 -0.8087133E+03  0.8243871E+04 -0.4002665E+04  0.3209283E+04  0.8087133E+03
      -0.5651696E+04  0.4002665E+04
   4   0.1114364E+04  0.3814729E+04 -0.4002665E+04  0.8773598E+04 -0.1114364E+04 -0.6406905E+04
       0.4002665E+04 -0.6181422E+04
   5  -0.9065269E+04 -0.5768794E+04  0.3209283E+04 -0.1114364E+04  0.1168496E+05  0.5768794E+04
      -0.5828978E+04  0.1114364E+04
   6  -0.5768794E+04 -0.9094423E+04  0.8087133E+03 -0.6406905E+04  0.5768794E+04  0.1171412E+05
      -0.8087133E+03  0.3787210E+04
   7   0.3204984E+04  0.8087133E+03 -0.5651696E+04  0.4002665E+04 -0.5828978E+04 -0.8087133E+03
       0.8275690E+04 -0.4002665E+04
   8  -0.1114364E+04 -0.6411204E+04  0.4002665E+04 -0.6181422E+04  0.1114364E+04  0.3787210E+04
      -0.4002665E+04  0.8805417E+04

      STIFFNESS MATRIX FOR ELEMENT       19          PLANE182
   1   0.6324399E+04 -0.3296074E+04  0.5647154E+03 -0.2047984E+04 -0.3949052E+04  0.3296074E+04
      -0.2940063E+04  0.2047984E+04
   2  -0.3296074E+04  0.1398609E+05 -0.3971061E+04 -0.7182335E+04  0.3296074E+04 -0.1161074E+05
       0.3971061E+04  0.4806988E+04
   3   0.5647154E+03 -0.3971061E+04  0.1297607E+05  0.4264674E+04 -0.4057492E+04  0.3971061E+04
      -0.9483297E+04 -0.4264674E+04
   4  -0.2047984E+04 -0.7182335E+04  0.4264674E+04  0.8742173E+04  0.2047984E+04  0.3689559E+04
      -0.4264674E+04 -0.5249397E+04
   5  -0.3949052E+04  0.3296074E+04 -0.4057492E+04  0.2047984E+04  0.6903358E+04 -0.3296074E+04
       0.1103186E+04 -0.2047984E+04
   6   0.3296074E+04 -0.1161074E+05  0.3971061E+04  0.3689559E+04 -0.3296074E+04  0.1456505E+05
      -0.3971061E+04 -0.6643865E+04
   7  -0.2940063E+04  0.3971061E+04 -0.9483297E+04 -0.4264674E+04  0.1103186E+04 -0.3971061E+04
       0.1132017E+05  0.4264674E+04
   8   0.2047984E+04  0.4806988E+04 -0.4264674E+04 -0.5249397E+04 -0.2047984E+04 -0.6643865E+04
       0.4264674E+04  0.7086273E+04

      STIFFNESS MATRIX FOR ELEMENT      971          PLANE182
   1   0.8719311E+04 -0.4518397E+04  0.3405796E+04 -0.1410557E+03 -0.6020011E+04  0.4518397E+04
      -0.6105096E+04  0.1410557E+03
   2  -0.4518397E+04  0.1081764E+05 -0.2064133E+04 -0.5953356E+04  0.4518397E+04 -0.8118337E+04
       0.2064133E+04  0.3254057E+04
   3   0.3405796E+04 -0.2064133E+04  0.1132228E+05  0.4846451E+04 -0.5882262E+04  0.2064133E+04
      -0.8845815E+04 -0.4846451E+04
   4  -0.1410557E+03 -0.5953356E+04  0.4846451E+04  0.9005251E+04  0.1410557E+03  0.3476891E+04
      -0.4846451E+04 -0.6528785E+04
   5  -0.6020011E+04  0.4518397E+04 -0.5882262E+04  0.1410557E+03  0.8455522E+04 -0.4518397E+04
       0.3446751E+04 -0.1410557E+03
   6   0.4518397E+04 -0.8118337E+04  0.2064133E+04  0.3476891E+04 -0.4518397E+04  0.1055385E+05
      -0.2064133E+04 -0.5912402E+04
   7  -0.6105096E+04  0.2064133E+04 -0.8845815E+04 -0.4846451E+04  0.3446751E+04 -0.2064133E+04
       0.1150416E+05  0.4846451E+04
   8   0.1410557E+03  0.3254057E+04 -0.4846451E+04 -0.6528785E+04 -0.1410557E+03 -0.5912402E+04
       0.4846451E+04  0.9187130E+04

      STIFFNESS MATRIX FOR ELEMENT      830          PLANE182
   1   0.1303792E+05  0.6583706E+04 -0.4799290E+04  0.1471961E+04 -0.1032313E+05 -0.6583706E+04
       0.2084498E+04 -0.1471961E+04
   2   0.6583706E+04  0.1338298E+05 -0.4511155E+03  0.4846148E+04 -0.6583706E+04 -0.1066819E+05
       0.4511155E+03 -0.7560940E+04
   3  -0.4799290E+04 -0.4511155E+03  0.6518508E+04 -0.3471202E+04  0.2551648E+04  0.4511155E+03
      -0.4270866E+04  0.3471202E+04
   4   0.1471961E+04  0.4846148E+04 -0.3471202E+04  0.8196026E+04 -0.1471961E+04 -0.7093789E+04
       0.3471202E+04 -0.5948384E+04
   5  -0.1032313E+05 -0.6583706E+04  0.2551648E+04 -0.1471961E+04  0.1304466E+05  0.6583706E+04
      -0.5273175E+04  0.1471961E+04
   6  -0.6583706E+04 -0.1066819E+05  0.4511155E+03 -0.7093789E+04  0.6583706E+04  0.1338972E+05
      -0.4511155E+03  0.4372262E+04
   7   0.2084498E+04  0.4511155E+03 -0.4270866E+04  0.3471202E+04 -0.5273175E+04 -0.4511155E+03
       0.7459544E+04 -0.3471202E+04
   8  -0.1471961E+04 -0.7560940E+04  0.3471202E+04 -0.5948384E+04  0.1471961E+04  0.4372262E+04
      -0.3471202E+04  0.9137062E+04

      STIFFNESS MATRIX FOR ELEMENT     2127          PLANE182
   1   0.1632977E+05  0.2226546E+04 -0.1104609E+05  0.4229799E+04 -0.1352821E+05 -0.2226546E+04
       0.8244523E+04 -0.4229799E+04
   2   0.2226546E+04  0.6210397E+04  0.2306722E+04 -0.2027471E+04 -0.2226546E+04 -0.3408834E+04
      -0.2306722E+04 -0.7740925E+03
   3  -0.1104609E+05  0.2306722E+04  0.1120279E+05 -0.5583707E+04  0.7910763E+04 -0.2306722E+04
      -0.8067464E+04  0.5583707E+04
   4   0.4229799E+04 -0.2027471E+04 -0.5583707E+04  0.1230169E+05 -0.4229799E+04 -0.1107853E+04
       0.5583707E+04 -0.9166366E+04
   5  -0.1352821E+05 -0.2226546E+04  0.7910763E+04 -0.4229799E+04  0.1667348E+05  0.2226546E+04
      -0.1105603E+05  0.4229799E+04
   6  -0.2226546E+04 -0.3408834E+04 -0.2306722E+04 -0.1107853E+04  0.2226546E+04  0.6554103E+04
       0.2306722E+04 -0.2037417E+04
   7   0.8244523E+04 -0.2306722E+04 -0.8067464E+04  0.5583707E+04 -0.1105603E+05  0.2306722E+04
       0.1087897E+05 -0.5583707E+04
   8  -0.4229799E+04 -0.7740925E+03  0.5583707E+04 -0.9166366E+04  0.4229799E+04 -0.2037417E+04
      -0.5583707E+04  0.1197787E+05

      STIFFNESS MATRIX FOR ELEMENT      972          PLANE182
   1   0.9244651E+04 -0.4727551E+04  0.4589265E+04 -0.2209640E+03 -0.6734325E+04  0.4727551E+04
      -0.7099592E+04  0.2209640E+03
   2  -0.4727551E+04  0.1031910E+05 -0.2144041E+04 -0.4819251E+04  0.4727551E+04 -0.7808777E+04
       0.2144041E+04  0.2308925E+04
   3   0.4589265E+04 -0.2144041E+04  0.1206511E+05  0.4593412E+04 -0.7215631E+04  0.2144041E+04
      -0.9438740E+04 -0.4593412E+04
   4  -0.2209640E+03 -0.4819251E+04  0.4593412E+04  0.8402368E+04  0.2209640E+03  0.2192885E+04
      -0.4593412E+04 -0.5776002E+04
   5  -0.6734325E+04  0.4727551E+04 -0.7215631E+04  0.2209640E+03  0.9399892E+04 -0.4727551E+04
       0.4550064E+04 -0.2209640E+03
   6   0.4727551E+04 -0.7808777E+04  0.2144041E+04  0.2192885E+04 -0.4727551E+04  0.1047434E+05
      -0.2144041E+04 -0.4858453E+04
   7  -0.7099592E+04  0.2144041E+04 -0.9438740E+04 -0.4593412E+04  0.4550064E+04 -0.2144041E+04
       0.1198827E+05  0.4593412E+04
   8   0.2209640E+03  0.2308925E+04 -0.4593412E+04 -0.5776002E+04 -0.2209640E+03 -0.4858453E+04
       0.4593412E+04  0.8325530E+04

      STIFFNESS MATRIX FOR ELEMENT      632          PLANE182
   1   0.1168844E+05  0.6488620E+04 -0.7123776E+04 -0.2261973E+04 -0.8395422E+04 -0.6488620E+04
       0.3830753E+04  0.2261973E+04
   2   0.6488620E+04  0.1835468E+05 -0.4185050E+04  0.3742960E+03 -0.6488620E+04 -0.1506166E+05
       0.4185050E+04 -0.3667319E+04
   3  -0.7123776E+04 -0.4185050E+04  0.9639553E+04 -0.1960799E+04  0.4865372E+04  0.4185050E+04
      -0.7381150E+04  0.1960799E+04
   4  -0.2261973E+04  0.3742960E+03 -0.1960799E+04  0.4204023E+04  0.2261973E+04 -0.2632700E+04
       0.1960799E+04 -0.1945619E+04
   5  -0.8395422E+04 -0.6488620E+04  0.4865372E+04  0.2261973E+04  0.1083633E+05  0.6488620E+04
      -0.7306275E+04 -0.2261973E+04
   6  -0.6488620E+04 -0.1506166E+05  0.4185050E+04 -0.2632700E+04  0.6488620E+04  0.1750256E+05
      -0.4185050E+04  0.1917966E+03
   7   0.3830753E+04  0.4185050E+04 -0.7381150E+04  0.1960799E+04 -0.7306275E+04 -0.4185050E+04
       0.1085667E+05 -0.1960799E+04
   8   0.2261973E+04 -0.3667319E+04  0.1960799E+04 -0.1945619E+04 -0.2261973E+04  0.1917966E+03
      -0.1960799E+04  0.5421142E+04

      STIFFNESS MATRIX FOR ELEMENT       43          PLANE182
   1   0.9555977E+04 -0.5239311E+04  0.4228898E+04 -0.1063725E+04 -0.6942493E+04  0.5239311E+04
      -0.6842382E+04  0.1063725E+04
   2  -0.5239311E+04  0.1282202E+05 -0.2986802E+04 -0.4580228E+04  0.5239311E+04 -0.1020854E+05
       0.2986802E+04  0.1966744E+04
   3   0.4228898E+04 -0.2986802E+04  0.1126564E+05  0.3628762E+04 -0.6814584E+04  0.2986802E+04
      -0.8679953E+04 -0.3628762E+04
   4  -0.1063725E+04 -0.4580228E+04  0.3628762E+04  0.6717351E+04  0.1063725E+04  0.1994542E+04
      -0.3628762E+04 -0.4131665E+04
   5  -0.6942493E+04  0.5239311E+04 -0.6814584E+04  0.1063725E+04  0.9539937E+04 -0.5239311E+04
       0.4217140E+04 -0.1063725E+04
   6   0.5239311E+04 -0.1020854E+05  0.2986802E+04  0.1994542E+04 -0.5239311E+04  0.1280598E+05
      -0.2986802E+04 -0.4591986E+04
   7  -0.6842382E+04  0.2986802E+04 -0.8679953E+04 -0.3628762E+04  0.4217140E+04 -0.2986802E+04
       0.1130519E+05  0.3628762E+04
   8   0.1063725E+04  0.1966744E+04 -0.3628762E+04 -0.4131665E+04 -0.1063725E+04 -0.4591986E+04
       0.3628762E+04  0.6756908E+04

      STIFFNESS MATRIX FOR ELEMENT      634          PLANE182
   1   0.5564531E+04  0.1626371E+04 -0.4348045E+04 -0.3976329E+04 -0.3016589E+04 -0.1626371E+04
       0.1800104E+04  0.3976329E+04
   2   0.1626371E+04  0.1530924E+05 -0.5899406E+04 -0.3565602E+04 -0.1626371E+04 -0.1276130E+05
       0.5899406E+04  0.1017660E+04
   3  -0.4348045E+04 -0.5899406E+04  0.1606299E+05  0.7800395E+03  0.4744362E+03  0.5899406E+04
      -0.1218938E+05 -0.7800395E+03
   4  -0.3976329E+04 -0.3565602E+04  0.7800395E+03  0.6638038E+04  0.3976329E+04 -0.3080069E+03
      -0.7800395E+03 -0.2764429E+04
   5  -0.3016589E+04 -0.1626371E+04  0.4744362E+03  0.3976329E+04  0.5919725E+04  0.1626371E+04
      -0.3377572E+04 -0.3976329E+04
   6  -0.1626371E+04 -0.1276130E+05  0.5899406E+04 -0.3080069E+03  0.1626371E+04  0.1566444E+05
      -0.5899406E+04 -0.2595129E+04
   7   0.1800104E+04  0.5899406E+04 -0.1218938E+05 -0.7800395E+03 -0.3377572E+04 -0.5899406E+04
       0.1376685E+05  0.7800395E+03
   8   0.3976329E+04  0.1017660E+04 -0.7800395E+03 -0.2764429E+04 -0.3976329E+04 -0.2595129E+04
       0.7800395E+03  0.4341897E+04

      STIFFNESS MATRIX FOR ELEMENT      488          PLANE182
   1   0.8343507E+04 -0.4234597E+04  0.6724115E+04 -0.2982852E+04 -0.5144497E+04  0.4234597E+04
      -0.9923125E+04  0.2982852E+04
   2  -0.4234597E+04  0.1121291E+05 -0.4905929E+04 -0.7553930E+03  0.4234597E+04 -0.8013900E+04
       0.4905929E+04 -0.2443617E+04
   3   0.6724115E+04 -0.4905929E+04  0.1969927E+05  0.1784277E+04 -0.9645185E+04  0.4905929E+04
      -0.1677820E+05 -0.1784277E+04
   4  -0.2982852E+04 -0.7553930E+03  0.1784277E+04  0.6974470E+04  0.2982852E+04 -0.2165677E+04
      -0.1784277E+04 -0.4053400E+04
   5  -0.5144497E+04  0.4234597E+04 -0.9645185E+04  0.2982852E+04  0.7859735E+04 -0.4234597E+04
       0.6929947E+04 -0.2982852E+04
   6   0.4234597E+04 -0.8013900E+04  0.4905929E+04 -0.2165677E+04 -0.4234597E+04  0.1072914E+05
      -0.4905929E+04 -0.5495613E+03
   7  -0.9923125E+04  0.4905929E+04 -0.1677820E+05 -0.1784277E+04  0.6929947E+04 -0.4905929E+04
       0.1977138E+05  0.1784277E+04
   8   0.2982852E+04 -0.2443617E+04 -0.1784277E+04 -0.4053400E+04 -0.2982852E+04 -0.5495613E+03
       0.1784277E+04  0.7046578E+04

      STIFFNESS MATRIX FOR ELEMENT      221          PLANE182
   1   0.7671276E+04 -0.2192237E+04 -0.1839358E+04 -0.1938391E+04 -0.2840313E+04  0.2192237E+04
      -0.2991604E+04  0.1938391E+04
   2  -0.2192237E+04  0.1418479E+05 -0.3861468E+04 -0.1044240E+05  0.2192237E+04 -0.9353827E+04
       0.3861468E+04  0.5611440E+04
   3  -0.1839358E+04 -0.3861468E+04  0.1554998E+05  0.6707447E+04 -0.1454188E+04  0.3861468E+04
      -0.1225644E+05 -0.6707447E+04
   4  -0.1938391E+04 -0.1044240E+05  0.6707447E+04  0.1271845E+05  0.1938391E+04  0.7148856E+04
      -0.6707447E+04 -0.9424901E+04
   5  -0.2840313E+04  0.2192237E+04 -0.1454188E+04  0.1938391E+04  0.4053189E+04 -0.2192237E+04
       0.2413118E+03 -0.1938391E+04
   6   0.2192237E+04 -0.9353827E+04  0.3861468E+04  0.7148856E+04 -0.2192237E+04  0.1056670E+05
      -0.3861468E+04 -0.8361732E+04
   7  -0.2991604E+04  0.3861468E+04 -0.1225644E+05 -0.6707447E+04  0.2413118E+03 -0.3861468E+04
       0.1500673E+05  0.6707447E+04
   8   0.1938391E+04  0.5611440E+04 -0.6707447E+04 -0.9424901E+04 -0.1938391E+04 -0.8361732E+04
       0.6707447E+04  0.1217519E+05

      STIFFNESS MATRIX FOR ELEMENT     2123          PLANE182
   1   0.1502139E+05  0.3431742E+04 -0.1043004E+05  0.3165515E+04 -0.1228648E+05 -0.3431742E+04
       0.7695125E+04 -0.3165515E+04
   2   0.3431742E+04  0.6835837E+04  0.1242438E+04 -0.7217718E+03 -0.3431742E+04 -0.4100926E+04
      -0.1242438E+04 -0.2013139E+04
   3  -0.1043004E+05  0.1242438E+04  0.1124203E+05 -0.5319861E+04  0.7455897E+04 -0.1242438E+04
      -0.8267889E+04  0.5319861E+04
   4   0.3165515E+04 -0.7217718E+03 -0.5319861E+04  0.1102277E+05 -0.3165515E+04 -0.2252367E+04
       0.5319861E+04 -0.8048628E+04
   5  -0.1228648E+05 -0.3431742E+04  0.7455897E+04 -0.3165515E+04  0.1524141E+05  0.3431742E+04
      -0.1041083E+05  0.3165515E+04
   6  -0.3431742E+04 -0.4100926E+04 -0.1242438E+04 -0.2252367E+04  0.3431742E+04  0.7055854E+04
       0.1242438E+04 -0.7025607E+03
   7   0.7695125E+04 -0.1242438E+04 -0.8267889E+04  0.5319861E+04 -0.1041083E+05  0.1242438E+04
       0.1098359E+05 -0.5319861E+04
   8  -0.3165515E+04 -0.2013139E+04  0.5319861E+04 -0.8048628E+04  0.3165515E+04 -0.7025607E+03
      -0.5319861E+04  0.1076433E+05

      STIFFNESS MATRIX FOR ELEMENT     2126          PLANE182
   1   0.1844276E+05  0.1653190E+04 -0.9980177E+04  0.4903007E+04 -0.1555844E+05 -0.1653190E+04
       0.7095857E+04 -0.4903007E+04
   2   0.1653190E+04  0.6572564E+04  0.2979930E+04 -0.2446397E+04 -0.1653190E+04 -0.3688245E+04
      -0.2979930E+04 -0.4379229E+03
   3  -0.9980177E+04  0.2979930E+04  0.8953111E+04 -0.4584305E+04  0.6755186E+04 -0.2979930E+04
      -0.5728121E+04  0.4584305E+04
   4   0.4903007E+04 -0.2446397E+04 -0.4584305E+04  0.1196046E+05 -0.4903007E+04 -0.7785934E+03
       0.4584305E+04 -0.8735467E+04
   5  -0.1555844E+05 -0.1653190E+04  0.6755186E+04 -0.4903007E+04  0.1854192E+05  0.1653190E+04
      -0.9738666E+04  0.4903007E+04
   6  -0.1653190E+04 -0.3688245E+04 -0.2979930E+04 -0.7785934E+03  0.1653190E+04  0.6671724E+04
       0.2979930E+04 -0.2204886E+04
   7   0.7095857E+04 -0.2979930E+04 -0.5728121E+04  0.4584305E+04 -0.9738666E+04  0.2979930E+04
       0.8370930E+04 -0.4584305E+04
   8  -0.4903007E+04 -0.4379229E+03  0.4584305E+04 -0.8735467E+04  0.4903007E+04 -0.2204886E+04
      -0.4584305E+04  0.1137828E+05

      STIFFNESS MATRIX FOR ELEMENT      772          PLANE182
   1   0.1096329E+05  0.5125902E+04 -0.6407130E+04  0.1122536E+04 -0.8269036E+04 -0.5125902E+04
       0.3712880E+04 -0.1122536E+04
   2   0.5125902E+04  0.1034605E+05 -0.8005414E+03  0.3206281E+04 -0.5125902E+04 -0.7651796E+04
       0.8005414E+03 -0.5900530E+04
   3  -0.6407130E+04 -0.8005414E+03  0.9406277E+04 -0.4504180E+04  0.3792333E+04  0.8005414E+03
      -0.6791481E+04  0.4504180E+04
   4   0.1122536E+04  0.3206281E+04 -0.4504180E+04  0.9467788E+04 -0.1122536E+04 -0.5821077E+04
       0.4504180E+04 -0.6852991E+04
   5  -0.8269036E+04 -0.5125902E+04  0.3792333E+04 -0.1122536E+04  0.1071814E+05  0.5125902E+04
      -0.6241434E+04  0.1122536E+04
   6  -0.5125902E+04 -0.7651796E+04  0.8005414E+03 -0.5821077E+04  0.5125902E+04  0.1010090E+05
      -0.8005414E+03  0.3371976E+04
   7   0.3712880E+04  0.8005414E+03 -0.6791481E+04  0.4504180E+04 -0.6241434E+04 -0.8005414E+03
       0.9320035E+04 -0.4504180E+04
   8  -0.1122536E+04 -0.5900530E+04  0.4504180E+04 -0.6852991E+04  0.1122536E+04  0.3371976E+04
      -0.4504180E+04  0.9381546E+04

      STIFFNESS MATRIX FOR ELEMENT      769          PLANE182
   1   0.1659460E+05  0.2065360E+04  0.9642800E+03  0.6017670E+04 -0.1393047E+05 -0.2065360E+04
      -0.3628417E+04 -0.6017670E+04
   2   0.2065360E+04  0.6175935E+04  0.4094593E+04  0.1547612E+04 -0.2065360E+04 -0.3511798E+04
      -0.4094593E+04 -0.4211749E+04
   3   0.9642800E+03  0.4094593E+04  0.5815365E+04  0.1186506E+04 -0.4268469E+04 -0.4094593E+04
      -0.2511177E+04 -0.1186506E+04
   4   0.6017670E+04  0.1547612E+04  0.1186506E+04  0.1465674E+05 -0.6017670E+04 -0.4851801E+04
      -0.1186506E+04 -0.1135255E+05
   5  -0.1393047E+05 -0.2065360E+04 -0.4268469E+04 -0.6017670E+04  0.1673285E+05  0.2065360E+04
       0.1466088E+04  0.6017670E+04
   6  -0.2065360E+04 -0.3511798E+04 -0.4094593E+04 -0.4851801E+04  0.2065360E+04  0.6314179E+04
       0.4094593E+04  0.2049420E+04
   7  -0.3628417E+04 -0.4094593E+04 -0.2511177E+04 -0.1186506E+04  0.1466088E+04  0.4094593E+04
       0.4673505E+04  0.1186506E+04
   8  -0.6017670E+04 -0.4211749E+04 -0.1186506E+04 -0.1135255E+05  0.6017670E+04  0.2049420E+04
       0.1186506E+04  0.1351488E+05

      STIFFNESS MATRIX FOR ELEMENT       29          PLANE182
   1   0.9344727E+04 -0.4625063E+04  0.4031226E+04  0.1758212E+03 -0.6660243E+04  0.4625063E+04
      -0.6715710E+04 -0.1758212E+03
   2  -0.4625063E+04  0.1017156E+05 -0.1747256E+04 -0.5482031E+04  0.4625063E+04 -0.7487075E+04
       0.1747256E+04  0.2797547E+04
   3   0.4031226E+04 -0.1747256E+04  0.1153550E+05  0.4864053E+04 -0.6661940E+04  0.1747256E+04
      -0.8904791E+04 -0.4864053E+04
   4   0.1758212E+03 -0.5482031E+04  0.4864053E+04  0.9172791E+04 -0.1758212E+03  0.2851317E+04
      -0.4864053E+04 -0.6542077E+04
   5  -0.6660243E+04  0.4625063E+04 -0.6661940E+04 -0.1758212E+03  0.9123824E+04 -0.4625063E+04
       0.4198359E+04  0.1758212E+03
   6   0.4625063E+04 -0.7487075E+04  0.1747256E+04  0.2851317E+04 -0.4625063E+04  0.9950657E+04
      -0.1747256E+04 -0.5314898E+04
   7  -0.6715710E+04  0.1747256E+04 -0.8904791E+04 -0.4864053E+04  0.4198359E+04 -0.1747256E+04
       0.1142214E+05  0.4864053E+04
   8  -0.1758212E+03  0.2797547E+04 -0.4864053E+04 -0.6542077E+04  0.1758212E+03 -0.5314898E+04
       0.4864053E+04  0.9059428E+04

      STIFFNESS MATRIX FOR ELEMENT      773          PLANE182
   1   0.1041228E+05  0.5298923E+04 -0.6053589E+04  0.3850639E+03 -0.7640117E+04 -0.5298923E+04
       0.3281423E+04 -0.3850639E+03
   2   0.5298923E+04  0.1180507E+05 -0.1538013E+04  0.3492954E+04 -0.5298923E+04 -0.9032905E+04
       0.1538013E+04 -0.6265120E+04
   3  -0.6053589E+04 -0.1538013E+04  0.9521849E+04 -0.4299285E+04  0.3500338E+04  0.1538013E+04
      -0.6968598E+04  0.4299285E+04
   4   0.3850639E+03  0.3492954E+04 -0.4299285E+04  0.8574735E+04 -0.3850639E+03 -0.6046205E+04
       0.4299285E+04 -0.6021484E+04
   5  -0.7640117E+04 -0.5298923E+04  0.3500338E+04 -0.3850639E+03  0.1003046E+05  0.5298923E+04
      -0.5890683E+04  0.3850639E+03
   6  -0.5298923E+04 -0.9032905E+04  0.1538013E+04 -0.6046205E+04  0.5298923E+04  0.1142325E+05
      -0.1538013E+04  0.3655860E+04
   7   0.3281423E+04  0.1538013E+04 -0.6968598E+04  0.4299285E+04 -0.5890683E+04 -0.1538013E+04
       0.9577858E+04 -0.4299285E+04
   8  -0.3850639E+03 -0.6265120E+04  0.4299285E+04 -0.6021484E+04  0.3850639E+03  0.3655860E+04
      -0.4299285E+04  0.8630744E+04

      STIFFNESS MATRIX FOR ELEMENT      635          PLANE182
   1   0.7598707E+04  0.3910857E+04 -0.5528820E+04 -0.3186429E+04 -0.4897216E+04 -0.3910857E+04
       0.2827329E+04  0.3186429E+04
   2   0.3910857E+04  0.1656657E+05 -0.5109506E+04 -0.4119175E+03 -0.3910857E+04 -0.1386507E+05
       0.5109506E+04 -0.2289574E+04
   3  -0.5528820E+04 -0.5109506E+04  0.1259287E+05 -0.1510736E+04  0.2511829E+04  0.5109506E+04
      -0.9575878E+04  0.1510736E+04
   4  -0.3186429E+04 -0.4119175E+03 -0.1510736E+04  0.5202818E+04  0.3186429E+04 -0.2605074E+04
       0.1510736E+04 -0.2185827E+04
   5  -0.4897216E+04 -0.3910857E+04  0.2511829E+04  0.3186429E+04  0.7511323E+04  0.3910857E+04
      -0.5125936E+04 -0.3186429E+04
   6  -0.3910857E+04 -0.1386507E+05  0.5109506E+04 -0.2605074E+04  0.3910857E+04  0.1647918E+05
      -0.5109506E+04 -0.9033885E+01
   7   0.2827329E+04  0.5109506E+04 -0.9575878E+04  0.1510736E+04 -0.5125936E+04 -0.5109506E+04
       0.1187449E+05 -0.1510736E+04
   8   0.3186429E+04 -0.2289574E+04  0.1510736E+04 -0.2185827E+04 -0.3186429E+04 -0.9033885E+01
      -0.1510736E+04  0.4484435E+04

      STIFFNESS MATRIX FOR ELEMENT      916          PLANE182
   1   0.9506342E+04 -0.4755232E+04  0.5035362E+04 -0.3273142E+03 -0.6906190E+04  0.4755232E+04
      -0.7635513E+04  0.3273142E+03
   2  -0.4755232E+04  0.1025450E+05 -0.2250391E+04 -0.4406949E+04  0.4755232E+04 -0.7654350E+04
       0.2250391E+04  0.1806797E+04
   3   0.5035362E+04 -0.2250391E+04  0.1261316E+05  0.4511403E+04 -0.7710958E+04  0.2250391E+04
      -0.9937565E+04 -0.4511403E+04
   4  -0.3273142E+03 -0.4406949E+04  0.4511403E+04  0.8204492E+04  0.3273142E+03  0.1731353E+04
      -0.4511403E+04 -0.5528896E+04
   5  -0.6906190E+04  0.4755232E+04 -0.7710958E+04  0.3273142E+03  0.9528496E+04 -0.4755232E+04
       0.5088652E+04 -0.3273142E+03
   6   0.4755232E+04 -0.7654350E+04  0.2250391E+04  0.1731353E+04 -0.4755232E+04  0.1027666E+05
      -0.2250391E+04 -0.4353659E+04
   7  -0.7635513E+04  0.2250391E+04 -0.9937565E+04 -0.4511403E+04  0.5088652E+04 -0.2250391E+04
       0.1248443E+05  0.4511403E+04
   8   0.3273142E+03  0.1806797E+04 -0.4511403E+04 -0.5528896E+04 -0.3273142E+03 -0.4353659E+04
       0.4511403E+04  0.8075757E+04

      STIFFNESS MATRIX FOR ELEMENT     2124          PLANE182
   1   0.1657355E+05  0.2332337E+04 -0.9592121E+04  0.4406721E+04 -0.1384549E+05 -0.2332337E+04
       0.6864067E+04 -0.4406721E+04
   2   0.2332337E+04  0.6320857E+04  0.2483644E+04 -0.1518128E+04 -0.2332337E+04 -0.3592803E+04
      -0.2483644E+04 -0.1209926E+04
   3  -0.9592121E+04  0.2483644E+04  0.9411239E+04 -0.4821183E+04  0.6448699E+04 -0.2483644E+04
      -0.6267817E+04  0.4821183E+04
   4   0.4406721E+04 -0.1518128E+04 -0.4821183E+04  0.1207066E+05 -0.4406721E+04 -0.1625294E+04
       0.4821183E+04 -0.8927241E+04
   5  -0.1384549E+05 -0.2332337E+04  0.6448699E+04 -0.4406721E+04  0.1680014E+05  0.2332337E+04
      -0.9403351E+04  0.4406721E+04
   6  -0.2332337E+04 -0.3592803E+04 -0.2483644E+04 -0.1625294E+04  0.2332337E+04  0.6547454E+04
       0.2483644E+04 -0.1329357E+04
   7   0.6864067E+04 -0.2483644E+04 -0.6267817E+04  0.4821183E+04 -0.9403351E+04  0.2483644E+04
       0.8807100E+04 -0.4821183E+04
   8  -0.4406721E+04 -0.1209926E+04  0.4821183E+04 -0.8927241E+04  0.4406721E+04 -0.1329357E+04
      -0.4821183E+04  0.1146652E+05

      STIFFNESS MATRIX FOR ELEMENT     2118          PLANE182
   1   0.2064085E+05  0.1995166E+04 -0.7784130E+04  0.5037905E+04 -0.1780679E+05 -0.1995166E+04
       0.4950067E+04 -0.5037905E+04
   2   0.1995166E+04  0.7268516E+04  0.3114828E+04 -0.1478482E+04 -0.1995166E+04 -0.4434453E+04
      -0.3114828E+04 -0.1355581E+04
   3  -0.7784130E+04  0.3114828E+04  0.6075800E+04 -0.3256440E+04  0.5161146E+04 -0.3114828E+04
      -0.3452816E+04  0.3256440E+04
   4   0.5037905E+04 -0.1478482E+04 -0.3256440E+04  0.1001636E+05 -0.5037905E+04 -0.1144502E+04
       0.3256440E+04 -0.7393371E+04
   5  -0.1780679E+05 -0.1995166E+04  0.5161146E+04 -0.5037905E+04  0.2072961E+05  0.1995166E+04
      -0.8083975E+04  0.5037905E+04
   6  -0.1995166E+04 -0.4434453E+04 -0.3114828E+04 -0.1144502E+04  0.1995166E+04  0.7357282E+04
       0.3114828E+04 -0.1778327E+04
   7   0.4950067E+04 -0.3114828E+04 -0.3452816E+04  0.3256440E+04 -0.8083975E+04  0.3114828E+04
       0.6586724E+04 -0.3256440E+04
   8  -0.5037905E+04 -0.1355581E+04  0.3256440E+04 -0.7393371E+04  0.5037905E+04 -0.1778327E+04
      -0.3256440E+04  0.1052728E+05

      STIFFNESS MATRIX FOR ELEMENT      774          PLANE182
   1   0.9261818E+04  0.4918136E+04 -0.6047284E+04 -0.8567885E+03 -0.6331861E+04 -0.4918136E+04
       0.3117327E+04  0.8567885E+03
   2   0.4918136E+04  0.1300025E+05 -0.2779865E+04  0.2856987E+04 -0.4918136E+04 -0.1007029E+05
       0.2779865E+04 -0.5786945E+04
   3  -0.6047284E+04 -0.2779865E+04  0.1082523E+05 -0.4027459E+04  0.3607477E+04  0.2779865E+04
      -0.8385420E+04  0.4027459E+04
   4  -0.8567885E+03  0.2856987E+04 -0.4027459E+04  0.7302475E+04  0.8567885E+03 -0.5296795E+04
       0.4027459E+04 -0.4862667E+04
   5  -0.6331861E+04 -0.4918136E+04  0.3607477E+04  0.8567885E+03  0.8571619E+04  0.4918136E+04
      -0.5847235E+04 -0.8567885E+03
   6  -0.4918136E+04 -0.1007029E+05  0.2779865E+04 -0.5296795E+04  0.4918136E+04  0.1231005E+05
      -0.2779865E+04  0.3057036E+04
   7   0.3117327E+04  0.2779865E+04 -0.8385420E+04  0.4027459E+04 -0.5847235E+04 -0.2779865E+04
       0.1111533E+05 -0.4027459E+04
   8   0.8567885E+03 -0.5786945E+04  0.4027459E+04 -0.4862667E+04 -0.8567885E+03  0.3057036E+04
      -0.4027459E+04  0.7592576E+04

      STIFFNESS MATRIX FOR ELEMENT      915          PLANE182
   1   0.1018550E+05 -0.5401154E+04  0.5456804E+04 -0.1088504E+04 -0.7597896E+04  0.5401154E+04
      -0.8044405E+04  0.1088504E+04
   2  -0.5401154E+04  0.1206669E+05 -0.3011581E+04 -0.3589278E+04  0.5401154E+04 -0.9479086E+04
       0.3011581E+04  0.1001676E+04
   3   0.5456804E+04 -0.3011581E+04  0.1227402E+05  0.3501331E+04 -0.8141340E+04  0.3011581E+04
      -0.9589484E+04 -0.3501331E+04
   4  -0.1088504E+04 -0.3589278E+04  0.3501331E+04  0.6626515E+04  0.1088504E+04  0.9047421E+03
      -0.3501331E+04 -0.3941980E+04
   5  -0.7597896E+04  0.5401154E+04 -0.8141340E+04  0.1088504E+04  0.1033407E+05 -0.5401154E+04
       0.5405168E+04 -0.1088504E+04
   6   0.5401154E+04 -0.9479086E+04  0.3011581E+04  0.9047421E+03 -0.5401154E+04  0.1221526E+05
      -0.3011581E+04 -0.3640914E+04
   7  -0.8044405E+04  0.3011581E+04 -0.9589484E+04 -0.3501331E+04  0.5405168E+04 -0.3011581E+04
       0.1222872E+05  0.3501331E+04
   8   0.1088504E+04  0.1001676E+04 -0.3501331E+04 -0.3941980E+04 -0.1088504E+04 -0.3640914E+04
       0.3501331E+04  0.6581217E+04

      STIFFNESS MATRIX FOR ELEMENT     2122          PLANE182
   1   0.6720850E+04 -0.3362548E+04  0.4742046E+04 -0.3315495E+04 -0.3629451E+04  0.3362548E+04
      -0.7833445E+04  0.3315495E+04
   2  -0.3362548E+04  0.1136122E+05 -0.5238572E+04 -0.1037819E+04  0.3362548E+04 -0.8269825E+04
       0.5238572E+04 -0.2053580E+04
   3   0.4742046E+04 -0.5238572E+04  0.1948974E+05  0.1433701E+04 -0.7545353E+04  0.5238572E+04
      -0.1668643E+05 -0.1433701E+04
   4  -0.3315495E+04 -0.1037819E+04  0.1433701E+04  0.6764734E+04  0.3315495E+04 -0.1765488E+04
      -0.1433701E+04 -0.3961426E+04
   5  -0.3629451E+04  0.3362548E+04 -0.7545353E+04  0.3315495E+04  0.6201558E+04 -0.3362548E+04
       0.4973246E+04 -0.3315495E+04
   6   0.3362548E+04 -0.8269825E+04  0.5238572E+04 -0.1765488E+04 -0.3362548E+04  0.1084193E+05
      -0.5238572E+04 -0.8066192E+03
   7  -0.7833445E+04  0.5238572E+04 -0.1668643E+05 -0.1433701E+04  0.4973246E+04 -0.5238572E+04
       0.1954663E+05  0.1433701E+04
   8   0.3315495E+04 -0.2053580E+04 -0.1433701E+04 -0.3961426E+04 -0.3315495E+04 -0.8066192E+03
       0.1433701E+04  0.6821625E+04

      STIFFNESS MATRIX FOR ELEMENT      628          PLANE182
   1   0.1059390E+05 -0.3606488E+04  0.9921114E+03  0.4189039E+04 -0.8635380E+04  0.3606488E+04
      -0.2950632E+04 -0.4189039E+04
   2  -0.3606488E+04  0.6118051E+04  0.2265963E+04 -0.6318568E+04  0.3606488E+04 -0.4159530E+04
      -0.2265963E+04  0.4360048E+04
   3   0.9921114E+03  0.2265963E+04  0.7724214E+04  0.3520639E+04 -0.4263676E+04 -0.2265963E+04
      -0.4452650E+04 -0.3520639E+04
   4   0.4189039E+04 -0.6318568E+04  0.3520639E+04  0.1643979E+05 -0.4189039E+04  0.3047003E+04
      -0.3520639E+04 -0.1316822E+05
   5  -0.8635380E+04  0.3606488E+04 -0.4263676E+04 -0.4189039E+04  0.1203392E+05 -0.3606488E+04
       0.8651411E+03  0.4189039E+04
   6   0.3606488E+04 -0.4159530E+04 -0.2265963E+04  0.3047003E+04 -0.3606488E+04  0.7558065E+04
       0.2265963E+04 -0.6445538E+04
   7  -0.2950632E+04 -0.2265963E+04 -0.4452650E+04 -0.3520639E+04  0.8651411E+03  0.2265963E+04
       0.6538140E+04  0.3520639E+04
   8  -0.4189039E+04  0.4360048E+04 -0.3520639E+04 -0.1316822E+05  0.4189039E+04 -0.6445538E+04
       0.3520639E+04  0.1525371E+05

      STIFFNESS MATRIX FOR ELEMENT     2308          PLANE182
   1   0.1551355E+05  0.3277208E+04 -0.9137032E+04  0.3609553E+04 -0.1262758E+05 -0.3277208E+04
       0.6251063E+04 -0.3609553E+04
   2   0.3277208E+04  0.6927070E+04  0.1686477E+04 -0.2280342E+03 -0.3277208E+04 -0.4041101E+04
      -0.1686477E+04 -0.2657935E+04
   3  -0.9137032E+04  0.1686477E+04  0.9150705E+04 -0.4913305E+04  0.6823336E+04 -0.1686477E+04
      -0.6837009E+04  0.4913305E+04
   4   0.3609553E+04 -0.2280342E+03 -0.4913305E+04  0.1067466E+05 -0.3609553E+04 -0.2085661E+04
       0.4913305E+04 -0.8360961E+04
   5  -0.1262758E+05 -0.3277208E+04  0.6823336E+04 -0.3609553E+04  0.1530043E+05  0.3277208E+04
      -0.9496178E+04  0.3609553E+04
   6  -0.3277208E+04 -0.4041101E+04 -0.1686477E+04 -0.2085661E+04  0.3277208E+04  0.6713942E+04
       0.1686477E+04 -0.5871801E+03
   7   0.6251063E+04 -0.1686477E+04 -0.6837009E+04  0.4913305E+04 -0.9496178E+04  0.1686477E+04
       0.1008212E+05 -0.4913305E+04
   8  -0.3609553E+04 -0.2657935E+04  0.4913305E+04 -0.8360961E+04  0.3609553E+04 -0.5871801E+03
      -0.4913305E+04  0.1160608E+05

      STIFFNESS MATRIX FOR ELEMENT      782          PLANE182
   1   0.1236497E+05 -0.1002296E+04  0.2786798E+04  0.5286289E+04 -0.9054968E+04  0.1002296E+04
      -0.6096803E+04 -0.5286289E+04
   2  -0.1002296E+04  0.5129950E+04  0.3363212E+04 -0.2006720E+04  0.1002296E+04 -0.1819944E+04
      -0.3363212E+04 -0.1303285E+04
   3   0.2786798E+04  0.3363212E+04  0.8354642E+04  0.4400332E+04 -0.5595183E+04 -0.3363212E+04
      -0.5546257E+04 -0.4400332E+04
   4   0.5286289E+04 -0.2006720E+04  0.4400332E+04  0.1795763E+05 -0.5286289E+04 -0.8016652E+03
      -0.4400332E+04 -0.1514924E+05
   5  -0.9054968E+04  0.1002296E+04 -0.5595183E+04 -0.5286289E+04  0.1124882E+05 -0.1002296E+04
       0.3401329E+04  0.5286289E+04
   6   0.1002296E+04 -0.1819944E+04 -0.3363212E+04 -0.8016652E+03 -0.1002296E+04  0.4013799E+04
       0.3363212E+04 -0.1392189E+04
   7  -0.6096803E+04 -0.3363212E+04 -0.5546257E+04 -0.4400332E+04  0.3401329E+04  0.3363212E+04
       0.8241731E+04  0.4400332E+04
   8  -0.5286289E+04 -0.1303285E+04 -0.4400332E+04 -0.1514924E+05  0.5286289E+04 -0.1392189E+04
       0.4400332E+04  0.1784471E+05

      STIFFNESS MATRIX FOR ELEMENT     2125          PLANE182
   1   0.1826021E+05  0.1555163E+04 -0.7648472E+04  0.5158657E+04 -0.1555353E+05 -0.1555163E+04
       0.4941792E+04 -0.5158657E+04
   2   0.1555163E+04  0.6415717E+04  0.3235580E+04 -0.1756758E+04 -0.1555163E+04 -0.3709037E+04
      -0.3235580E+04 -0.9499213E+03
   3  -0.7648472E+04  0.3235580E+04  0.6984735E+04 -0.3535385E+04  0.4579399E+04 -0.3235580E+04
      -0.3915662E+04  0.3535385E+04
   4   0.5158657E+04 -0.1756758E+04 -0.3535385E+04  0.1185986E+05 -0.5158657E+04 -0.1312315E+04
       0.3535385E+04 -0.8790783E+04
   5  -0.1555353E+05 -0.1555163E+04  0.4579399E+04 -0.5158657E+04  0.1841168E+05  0.1555163E+04
      -0.7437546E+04  0.5158657E+04
   6  -0.1555163E+04 -0.3709037E+04 -0.3235580E+04 -0.1312315E+04  0.1555163E+04  0.6567185E+04
       0.3235580E+04 -0.1545833E+04
   7   0.4941792E+04 -0.3235580E+04 -0.3915662E+04  0.3535385E+04 -0.7437546E+04  0.3235580E+04
       0.6411416E+04 -0.3535385E+04
   8  -0.5158657E+04 -0.9499213E+03  0.3535385E+04 -0.8790783E+04  0.5158657E+04 -0.1545833E+04
      -0.3535385E+04  0.1128654E+05

      STIFFNESS MATRIX FOR ELEMENT      770          PLANE182
   1   0.1623464E+05  0.9758187E+03  0.3255319E+04  0.6061530E+04 -0.1325327E+05 -0.9758187E+03
      -0.6236685E+04 -0.6061530E+04
   2   0.9758187E+03  0.5895768E+04  0.4138453E+04  0.1057982E+04 -0.9758187E+03 -0.2914402E+04
      -0.4138453E+04 -0.4039349E+04
   3   0.3255319E+04  0.4138453E+04  0.6464831E+04  0.2967769E+04 -0.6037819E+04 -0.4138453E+04
      -0.3682331E+04 -0.2967769E+04
   4   0.6061530E+04  0.1057982E+04  0.2967769E+04  0.1494035E+05 -0.6061530E+04 -0.3840482E+04
      -0.2967769E+04 -0.1215785E+05
   5  -0.1325327E+05 -0.9758187E+03 -0.6037819E+04 -0.6061530E+04  0.1584155E+05  0.9758187E+03
       0.3449536E+04  0.6061530E+04
   6  -0.9758187E+03 -0.2914402E+04 -0.4138453E+04 -0.3840482E+04  0.9758187E+03  0.5502685E+04
       0.4138453E+04  0.1252199E+04
   7  -0.6236685E+04 -0.4138453E+04 -0.3682331E+04 -0.2967769E+04  0.3449536E+04  0.4138453E+04
       0.6469481E+04  0.2967769E+04
   8  -0.6061530E+04 -0.4039349E+04 -0.2967769E+04 -0.1215785E+05  0.6061530E+04  0.1252199E+04
       0.2967769E+04  0.1494500E+05

      STIFFNESS MATRIX FOR ELEMENT     2117          PLANE182
   1   0.5496147E+04 -0.2584326E+04  0.3853566E+04 -0.3185512E+04 -0.2452315E+04  0.2584326E+04
      -0.6897399E+04  0.3185512E+04
   2  -0.2584326E+04  0.9738102E+04 -0.5108589E+04 -0.1778458E+04  0.2584326E+04 -0.6694270E+04
       0.5108589E+04 -0.1265375E+04
   3   0.3853566E+04 -0.5108589E+04  0.2212668E+05  0.2289138E+04 -0.6740702E+04  0.5108589E+04
      -0.1923954E+05 -0.2289138E+04
   4  -0.3185512E+04 -0.1778458E+04  0.2289138E+04  0.7808768E+04  0.3185512E+04 -0.1108678E+04
      -0.2289138E+04 -0.4921632E+04
   5  -0.2452315E+04  0.2584326E+04 -0.6740702E+04  0.3185512E+04  0.5201650E+04 -0.2584326E+04
       0.3991367E+04 -0.3185512E+04
   6   0.2584326E+04 -0.6694270E+04  0.5108589E+04 -0.1108678E+04 -0.2584326E+04  0.9443605E+04
      -0.5108589E+04 -0.1640657E+04
   7  -0.6897399E+04  0.5108589E+04 -0.1923954E+05 -0.2289138E+04  0.3991367E+04 -0.5108589E+04
       0.2214557E+05  0.2289138E+04
   8   0.3185512E+04 -0.1265375E+04 -0.2289138E+04 -0.4921632E+04 -0.3185512E+04 -0.1640657E+04
       0.2289138E+04  0.7827664E+04

      STIFFNESS MATRIX FOR ELEMENT      711          PLANE182
   1   0.6656633E+04  0.2395911E+04 -0.7325152E+04 -0.5115409E+04 -0.3401566E+04 -0.2395911E+04
       0.4070085E+04  0.5115409E+04
   2   0.2395911E+04  0.1700602E+05 -0.7038486E+04 -0.1068985E+05 -0.2395911E+04 -0.1375095E+05
       0.7038486E+04  0.7434782E+04
   3  -0.7325152E+04 -0.7038486E+04  0.1823641E+05  0.5766235E+04  0.3869147E+04  0.7038486E+04
      -0.1478040E+05 -0.5766235E+04
   4  -0.5115409E+04 -0.1068985E+05  0.5766235E+04  0.1039687E+05  0.5115409E+04  0.7233844E+04
      -0.5766235E+04 -0.6940864E+04
   5  -0.3401566E+04 -0.2395911E+04  0.3869147E+04  0.5115409E+04  0.6908421E+04  0.2395911E+04
      -0.7376002E+04 -0.5115409E+04
   6  -0.2395911E+04 -0.1375095E+05  0.7038486E+04  0.7233844E+04  0.2395911E+04  0.1725781E+05
      -0.7038486E+04 -0.1074070E+05
   7   0.4070085E+04  0.7038486E+04 -0.1478040E+05 -0.5766235E+04 -0.7376002E+04 -0.7038486E+04
       0.1808632E+05  0.5766235E+04
   8   0.5115409E+04  0.7434782E+04 -0.5766235E+04 -0.6940864E+04 -0.5115409E+04 -0.1074070E+05
       0.5766235E+04  0.1024678E+05

      STIFFNESS MATRIX FOR ELEMENT      920          PLANE182
   1   0.9344570E+04 -0.4513441E+04  0.4500021E+04  0.4994570E+03 -0.6913281E+04  0.4513441E+04
      -0.6931311E+04 -0.4994570E+03
   2  -0.4513441E+04  0.9188195E+04 -0.1423620E+04 -0.5132815E+04  0.4513441E+04 -0.6756906E+04
       0.1423620E+04  0.2701526E+04
   3   0.4500021E+04 -0.1423620E+04  0.1188643E+05  0.5073820E+04 -0.7266313E+04  0.1423620E+04
      -0.9120134E+04 -0.5073820E+04
   4   0.4994570E+03 -0.5132815E+04  0.5073820E+04  0.9738234E+04 -0.4994570E+03  0.2366524E+04
      -0.5073820E+04 -0.6971943E+04
   5  -0.6913281E+04  0.4513441E+04 -0.7266313E+04 -0.4994570E+03  0.9662818E+04 -0.4513441E+04
       0.4516776E+04  0.4994570E+03
   6   0.4513441E+04 -0.6756906E+04  0.1423620E+04  0.2366524E+04 -0.4513441E+04  0.9506442E+04
      -0.1423620E+04 -0.5116061E+04
   7  -0.6931311E+04  0.1423620E+04 -0.9120134E+04 -0.5073820E+04  0.4516776E+04 -0.1423620E+04
       0.1153467E+05  0.5073820E+04
   8  -0.4994570E+03  0.2701526E+04 -0.5073820E+04 -0.6971943E+04  0.4994570E+03 -0.5116061E+04
       0.5073820E+04  0.9386477E+04

      STIFFNESS MATRIX FOR ELEMENT      777          PLANE182
   1   0.1076576E+05  0.5343760E+04 -0.5910957E+04  0.7473623E+03 -0.7960586E+04 -0.5343760E+04
       0.3105786E+04 -0.7473623E+03
   2   0.5343760E+04  0.1157168E+05 -0.1175715E+04  0.3699426E+04 -0.5343760E+04 -0.8766506E+04
       0.1175715E+04 -0.6504597E+04
   3  -0.5910957E+04 -0.1175715E+04  0.9066431E+04 -0.4316817E+04  0.3383827E+04  0.1175715E+04
      -0.6539302E+04  0.4316817E+04
   4   0.7473623E+03  0.3699426E+04 -0.4316817E+04  0.8947111E+04 -0.7473623E+03 -0.6226556E+04
       0.4316817E+04 -0.6419981E+04
   5  -0.7960586E+04 -0.5343760E+04  0.3383827E+04 -0.7473623E+03  0.1032340E+05  0.5343760E+04
      -0.5746644E+04  0.7473623E+03
   6  -0.5343760E+04 -0.8766506E+04  0.1175715E+04 -0.6226556E+04  0.5343760E+04  0.1112932E+05
      -0.1175715E+04  0.3863739E+04
   7   0.3105786E+04  0.1175715E+04 -0.6539302E+04  0.4316817E+04 -0.5746644E+04 -0.1175715E+04
       0.9180160E+04 -0.4316817E+04
   8  -0.7473623E+03 -0.6504597E+04  0.4316817E+04 -0.6419981E+04  0.7473623E+03  0.3863739E+04
      -0.4316817E+04  0.9060839E+04

      STIFFNESS MATRIX FOR ELEMENT      917          PLANE182
   1   0.9680015E+04 -0.4703315E+04  0.5098549E+04 -0.5054122E+03 -0.6786199E+04  0.4703315E+04
      -0.7992365E+04  0.5054122E+03
   2  -0.4703315E+04  0.1049723E+05 -0.2428489E+04 -0.4298166E+04  0.4703315E+04 -0.7603418E+04
       0.2428489E+04  0.1404350E+04
   3   0.5098549E+04 -0.2428489E+04  0.1319200E+05  0.4456849E+04 -0.7824417E+04  0.2428489E+04
      -0.1046613E+05 -0.4456849E+04
   4  -0.5054122E+03 -0.4298166E+04  0.4456849E+04  0.8104774E+04  0.5054122E+03  0.1572298E+04
      -0.4456849E+04 -0.5378906E+04
   5  -0.6786199E+04  0.4703315E+04 -0.7824417E+04  0.5054122E+03  0.9156610E+04 -0.4703315E+04
       0.5454006E+04 -0.5054122E+03
   6   0.4703315E+04 -0.7603418E+04  0.2428489E+04  0.1572298E+04 -0.4703315E+04  0.9973828E+04
      -0.2428489E+04 -0.3942708E+04
   7  -0.7992365E+04  0.2428489E+04 -0.1046613E+05 -0.4456849E+04  0.5454006E+04 -0.2428489E+04
       0.1300449E+05  0.4456849E+04
   8   0.5054122E+03  0.1404350E+04 -0.4456849E+04 -0.5378906E+04 -0.5054122E+03 -0.3942708E+04
       0.4456849E+04  0.7917265E+04

      STIFFNESS MATRIX FOR ELEMENT      776          PLANE182
   1   0.9450313E+04  0.5071336E+04 -0.5335541E+04 -0.1521644E+03 -0.6661612E+04 -0.5071336E+04
       0.2546841E+04  0.1521644E+03
   2   0.5071336E+04  0.1275506E+05 -0.2075241E+04  0.4051622E+04 -0.5071336E+04 -0.9966362E+04
       0.2075241E+04 -0.6840323E+04
   3  -0.5335541E+04 -0.2075241E+04  0.9728395E+04 -0.4313177E+04  0.2823000E+04  0.2075241E+04
      -0.7215854E+04  0.4313177E+04
   4  -0.1521644E+03  0.4051622E+04 -0.4313177E+04  0.8416108E+04  0.1521644E+03 -0.6564163E+04
       0.4313177E+04 -0.5903567E+04
   5  -0.6661612E+04 -0.5071336E+04  0.2823000E+04  0.1521644E+03  0.9050734E+04  0.5071336E+04
      -0.5212121E+04 -0.1521644E+03
   6  -0.5071336E+04 -0.9966362E+04  0.2075241E+04 -0.6564163E+04  0.5071336E+04  0.1235548E+05
      -0.2075241E+04  0.4175042E+04
   7   0.2546841E+04  0.2075241E+04 -0.7215854E+04  0.4313177E+04 -0.5212121E+04 -0.2075241E+04
       0.9881135E+04 -0.4313177E+04
   8   0.1521644E+03 -0.6840323E+04  0.4313177E+04 -0.5903567E+04 -0.1521644E+03  0.4175042E+04
      -0.4313177E+04  0.8568848E+04

      STIFFNESS MATRIX FOR ELEMENT     2307          PLANE182
   1   0.1753946E+05  0.2340117E+04 -0.6740808E+04  0.4851701E+04 -0.1470262E+05 -0.2340117E+04
       0.3903960E+04 -0.4851701E+04
   2   0.2340117E+04  0.6695567E+04  0.2928624E+04 -0.5026131E+03 -0.2340117E+04 -0.3858719E+04
      -0.2928624E+04 -0.2334235E+04
   3  -0.6740808E+04  0.2928624E+04  0.6145804E+04 -0.3410316E+04  0.4373147E+04 -0.2928624E+04
      -0.3778143E+04  0.3410316E+04
   4   0.4851701E+04 -0.5026131E+03 -0.3410316E+04  0.1108319E+05 -0.4851701E+04 -0.1865048E+04
       0.3410316E+04 -0.8715533E+04
   5  -0.1470262E+05 -0.2340117E+04  0.4373147E+04 -0.4851701E+04  0.1727487E+05  0.2340117E+04
      -0.6945401E+04  0.4851701E+04
   6  -0.2340117E+04 -0.3858719E+04 -0.2928624E+04 -0.1865048E+04  0.2340117E+04  0.6430974E+04
       0.2928624E+04 -0.7072067E+03
   7   0.3903960E+04 -0.2928624E+04 -0.3778143E+04  0.3410316E+04 -0.6945401E+04  0.2928624E+04
       0.6819584E+04 -0.3410316E+04
   8  -0.4851701E+04 -0.2334235E+04  0.3410316E+04 -0.8715533E+04  0.4851701E+04 -0.7072067E+03
      -0.3410316E+04  0.1175697E+05

      STIFFNESS MATRIX FOR ELEMENT      914          PLANE182
   1   0.7899395E+04 -0.4114152E+04  0.4262533E+04 -0.1759399E+04 -0.5007452E+04  0.4114152E+04
      -0.7154475E+04  0.1759399E+04
   2  -0.4114152E+04  0.1131875E+05 -0.3682476E+04 -0.3888620E+04  0.4114152E+04 -0.8426807E+04
       0.3682476E+04  0.9966776E+03
   3   0.4262533E+04 -0.3682476E+04  0.1496056E+05  0.3818625E+04 -0.7028896E+04  0.3682476E+04
      -0.1219420E+05 -0.3818625E+04
   4  -0.1759399E+04 -0.3888620E+04  0.3818625E+04  0.7352597E+04  0.1759399E+04  0.1122257E+04
      -0.3818625E+04 -0.4586234E+04
   5  -0.5007452E+04  0.4114152E+04 -0.7028896E+04  0.1759399E+04  0.7376711E+04 -0.4114152E+04
       0.4659638E+04 -0.1759399E+04
   6   0.4114152E+04 -0.8426807E+04  0.3682476E+04  0.1122257E+04 -0.4114152E+04  0.1079607E+05
      -0.3682476E+04 -0.3491515E+04
   7  -0.7154475E+04  0.3682476E+04 -0.1219420E+05 -0.3818625E+04  0.4659638E+04 -0.3682476E+04
       0.1468904E+05  0.3818625E+04
   8   0.1759399E+04  0.9966776E+03 -0.3818625E+04 -0.4586234E+04 -0.1759399E+04 -0.3491515E+04
       0.3818625E+04  0.7081071E+04

      STIFFNESS MATRIX FOR ELEMENT     2119          PLANE182
   1   0.5277054E+04 -0.2187067E+04  0.2530393E+04 -0.3482267E+04 -0.2231590E+04  0.2187067E+04
      -0.5575857E+04  0.3482267E+04
   2  -0.2187067E+04  0.1090439E+05 -0.5405344E+04 -0.1703407E+04  0.2187067E+04 -0.7858928E+04
       0.5405344E+04 -0.1342057E+04
   3   0.2530393E+04 -0.5405344E+04  0.2017915E+05  0.1539277E+04 -0.5232319E+04  0.5405344E+04
      -0.1747723E+05 -0.1539277E+04
   4  -0.3482267E+04 -0.1703407E+04  0.1539277E+04  0.6934779E+04  0.3482267E+04 -0.9985191E+03
      -0.1539277E+04 -0.4232854E+04
   5  -0.2231590E+04  0.2187067E+04 -0.5232319E+04  0.3482267E+04  0.4719869E+04 -0.2187067E+04
       0.2744039E+04 -0.3482267E+04
   6   0.2187067E+04 -0.7858928E+04  0.5405344E+04 -0.9985191E+03 -0.2187067E+04  0.1034721E+05
      -0.5405344E+04 -0.1489760E+04
   7  -0.5575857E+04  0.5405344E+04 -0.1747723E+05 -0.1539277E+04  0.2744039E+04 -0.5405344E+04
       0.2030904E+05  0.1539277E+04
   8   0.3482267E+04 -0.1342057E+04 -0.1539277E+04 -0.4232854E+04 -0.3482267E+04 -0.1489760E+04
       0.1539277E+04  0.7064671E+04

      STIFFNESS MATRIX FOR ELEMENT      775          PLANE182
   1   0.8422504E+04  0.4653220E+04 -0.5108536E+04 -0.1062233E+04 -0.5719519E+04 -0.4653220E+04
       0.2405551E+04  0.1062233E+04
   2   0.4653220E+04  0.1342285E+05 -0.2985310E+04  0.3632155E+04 -0.4653220E+04 -0.1071986E+05
       0.2985310E+04 -0.6335140E+04
   3  -0.5108536E+04 -0.2985310E+04  0.1061879E+05 -0.4087116E+04  0.2714837E+04  0.2985310E+04
      -0.8225092E+04  0.4087116E+04
   4  -0.1062233E+04  0.3632155E+04 -0.4087116E+04  0.7407825E+04  0.1062233E+04 -0.6025854E+04
       0.4087116E+04 -0.5014126E+04
   5  -0.5719519E+04 -0.4653220E+04  0.2714837E+04  0.1062233E+04  0.8181959E+04  0.4653220E+04
      -0.5177277E+04 -0.1062233E+04
   6  -0.4653220E+04 -0.1071986E+05  0.2985310E+04 -0.6025854E+04  0.4653220E+04  0.1318230E+05
      -0.2985310E+04  0.3563414E+04
   7   0.2405551E+04  0.2985310E+04 -0.8225092E+04  0.4087116E+04 -0.5177277E+04 -0.2985310E+04
       0.1099682E+05 -0.4087116E+04
   8   0.1062233E+04 -0.6335140E+04  0.4087116E+04 -0.5014126E+04 -0.1062233E+04  0.3563414E+04
      -0.4087116E+04  0.7785852E+04

      STIFFNESS MATRIX FOR ELEMENT      783          PLANE182
   1   0.1501259E+05  0.5663532E+03  0.3459517E+04  0.5971216E+04 -0.1198215E+05 -0.5663532E+03
      -0.6489956E+04 -0.5971216E+04
   2   0.5663532E+03  0.5508714E+04  0.4048140E+04  0.6410099E+03 -0.5663532E+03 -0.2478275E+04
      -0.4048140E+04 -0.3671449E+04
   3   0.3459517E+04  0.4048140E+04  0.7172862E+04  0.3501292E+04 -0.6285882E+04 -0.4048140E+04
      -0.4346497E+04 -0.3501292E+04
   4   0.5971216E+04  0.6410099E+03  0.3501292E+04  0.1606520E+05 -0.5971216E+04 -0.3467374E+04
      -0.3501292E+04 -0.1323884E+05
[...]
      -0.3229349E+04  0.1222742E+05

      STIFFNESS MATRIX FOR ELEMENT      797          PLANE182
   1   0.1053207E+05 -0.5107491E+04  0.6624767E+04 -0.1276087E+04 -0.7534089E+04  0.5107491E+04
      -0.9622749E+04  0.1276087E+04
   2  -0.5107491E+04  0.1112528E+05 -0.3199164E+04 -0.2746927E+04  0.5107491E+04 -0.8127301E+04
       0.3199164E+04 -0.2510547E+03
   3   0.6624767E+04 -0.3199164E+04  0.1495355E+05  0.3545173E+04 -0.9573391E+04  0.3199164E+04
      -0.1200492E+05 -0.3545173E+04
   4  -0.1276087E+04 -0.2746927E+04  0.3545173E+04  0.7153700E+04  0.1276087E+04 -0.2016970E+03
      -0.3545173E+04 -0.4205075E+04
   5  -0.7534089E+04  0.5107491E+04 -0.9573391E+04  0.1276087E+04  0.1008520E+05 -0.5107491E+04
       0.7022278E+04 -0.1276087E+04
   6   0.5107491E+04 -0.8127301E+04  0.3199164E+04 -0.2016970E+03 -0.5107491E+04  0.1067841E+05
      -0.3199164E+04 -0.2349417E+04
   7  -0.9622749E+04  0.3199164E+04 -0.1200492E+05 -0.3545173E+04  0.7022278E+04 -0.3199164E+04
       0.1460539E+05  0.3545173E+04
   8   0.1276087E+04 -0.2510547E+03 -0.3545173E+04 -0.4205075E+04 -0.1276087E+04 -0.2349417E+04
       0.3545173E+04  0.6805547E+04

      STIFFNESS MATRIX FOR ELEMENT      803          PLANE182
   1   0.1553020E+05 -0.4787235E+04  0.5977021E+04  0.2502319E+04 -0.1259623E+05  0.4787235E+04
      -0.8910995E+04 -0.2502319E+04
   2  -0.4787235E+04  0.8748784E+04  0.5792420E+03 -0.3623283E+04  0.4787235E+04 -0.5814811E+04
      -0.5792420E+03  0.6893097E+03
   3   0.5977021E+04  0.5792420E+03  0.9305154E+04  0.4332334E+04 -0.8862527E+04 -0.5792420E+03
      -0.6419648E+04 -0.4332334E+04
   4   0.2502319E+04 -0.3623283E+04  0.4332334E+04  0.9347885E+04 -0.2502319E+04  0.7377772E+03
      -0.4332334E+04 -0.6462379E+04
   5  -0.1259623E+05  0.4787235E+04 -0.8862527E+04 -0.2502319E+04  0.1511051E+05 -0.4787235E+04
       0.6348247E+04  0.2502319E+04
   6   0.4787235E+04 -0.5814811E+04 -0.5792420E+03  0.7377772E+03 -0.4787235E+04  0.8329091E+04
       0.5792420E+03 -0.3252058E+04
   7  -0.8910995E+04 -0.5792420E+03 -0.6419648E+04 -0.4332334E+04  0.6348247E+04  0.5792420E+03
       0.8982396E+04  0.4332334E+04
   8  -0.2502319E+04  0.6893097E+03 -0.4332334E+04 -0.6462379E+04  0.2502319E+04 -0.3252058E+04
       0.4332334E+04  0.9025127E+04

      STIFFNESS MATRIX FOR ELEMENT      800          PLANE182
   1   0.1319723E+05 -0.5388408E+04  0.6577642E+04  0.5559165E+03 -0.1019163E+05  0.5388408E+04
      -0.9583248E+04 -0.5559165E+03
   2  -0.5388408E+04  0.1021551E+05 -0.1367160E+04 -0.3623448E+04  0.5388408E+04 -0.7209902E+04
       0.1367160E+04  0.6178420E+03
   3   0.6577642E+04 -0.1367160E+04  0.1208247E+05  0.4259027E+04 -0.9641716E+04  0.1367160E+04
      -0.9018392E+04 -0.4259027E+04
   4   0.5559165E+03 -0.3623448E+04  0.4259027E+04  0.8189884E+04 -0.5559165E+03  0.5593740E+03
      -0.4259027E+04 -0.5125810E+04
   5  -0.1019163E+05  0.5388408E+04 -0.9641716E+04 -0.5559165E+03  0.1268484E+05 -0.5388408E+04
       0.7148506E+04  0.5559165E+03
   6   0.5388408E+04 -0.7209902E+04  0.1367160E+04  0.5593740E+03 -0.5388408E+04  0.9703112E+04
      -0.1367160E+04 -0.3052584E+04
   7  -0.9583248E+04  0.1367160E+04 -0.9018392E+04 -0.4259027E+04  0.7148506E+04 -0.1367160E+04
       0.1145313E+05  0.4259027E+04
   8  -0.5559165E+03  0.6178420E+03 -0.4259027E+04 -0.5125810E+04  0.5559165E+03 -0.3052584E+04
       0.4259027E+04  0.7560552E+04

      STIFFNESS MATRIX FOR ELEMENT      810          PLANE182
   1   0.9231202E+04  0.4883780E+04 -0.7154904E+04 -0.1779977E+04 -0.6218656E+04 -0.4883780E+04
       0.4142357E+04  0.1779977E+04
   2   0.4883780E+04  0.1307618E+05 -0.3703054E+04  0.1020271E+04 -0.4883780E+04 -0.1006363E+05
       0.3703054E+04 -0.4032818E+04
   3  -0.7154904E+04 -0.3703054E+04  0.1244272E+05 -0.3193837E+04  0.5088195E+04  0.3703054E+04
      -0.1037601E+05  0.3193837E+04
   4  -0.1779977E+04  0.1020271E+04 -0.3193837E+04  0.5778922E+04  0.1779977E+04 -0.3086980E+04
       0.3193837E+04 -0.3712214E+04
   5  -0.6218656E+04 -0.4883780E+04  0.5088195E+04  0.1779977E+04  0.8524886E+04  0.4883780E+04
      -0.7394426E+04 -0.1779977E+04
   6  -0.4883780E+04 -0.1006363E+05  0.3703054E+04 -0.3086980E+04  0.4883780E+04  0.1236986E+05
      -0.3703054E+04  0.7807489E+03
   7   0.4142357E+04  0.3703054E+04 -0.1037601E+05  0.3193837E+04 -0.7394426E+04 -0.3703054E+04
       0.1362808E+05 -0.3193837E+04
   8   0.1779977E+04 -0.4032818E+04  0.3193837E+04 -0.3712214E+04 -0.1779977E+04  0.7807489E+03
      -0.3193837E+04  0.6964283E+04

      STIFFNESS MATRIX FOR ELEMENT      855          PLANE182
   1   0.1501594E+05  0.2860548E+04 -0.8703155E+04  0.4025891E+04 -0.1222340E+05 -0.2860548E+04
       0.5910622E+04 -0.4025891E+04
   2   0.2860548E+04  0.6424035E+04  0.2102814E+04 -0.5584718E+03 -0.2860548E+04 -0.3631502E+04
      -0.2102814E+04 -0.2234061E+04
   3  -0.8703155E+04  0.2102814E+04  0.9299139E+04 -0.4797560E+04  0.5604514E+04 -0.2102814E+04
      -0.6200498E+04  0.4797560E+04
   4   0.4025891E+04 -0.5584718E+03 -0.4797560E+04  0.1233918E+05 -0.4025891E+04 -0.2540170E+04
       0.4797560E+04 -0.9240541E+04
   5  -0.1222340E+05 -0.2860548E+04  0.5604514E+04 -0.4025891E+04  0.1488481E+05  0.2860548E+04
      -0.8265924E+04  0.4025891E+04
   6  -0.2860548E+04 -0.3631502E+04 -0.2102814E+04 -0.2540170E+04  0.2860548E+04  0.6292912E+04
       0.2102814E+04 -0.1212406E+03
   7   0.5910622E+04 -0.2102814E+04 -0.6200498E+04  0.4797560E+04 -0.8265924E+04  0.2102814E+04
       0.8555800E+04 -0.4797560E+04
   8  -0.4025891E+04 -0.2234061E+04  0.4797560E+04 -0.9240541E+04  0.4025891E+04 -0.1212406E+03
      -0.4797560E+04  0.1159584E+05

      STIFFNESS MATRIX FOR ELEMENT      811          PLANE182
   1   0.5899709E+04  0.3231355E+04 -0.5501164E+04 -0.1989507E+04 -0.3536074E+04 -0.3231355E+04
       0.3137529E+04  0.1989507E+04
   2   0.3231355E+04  0.1031770E+05 -0.3912584E+04  0.2111519E+04 -0.3231355E+04 -0.7954068E+04
       0.3912584E+04 -0.4475154E+04
   3  -0.5501164E+04 -0.3912584E+04  0.1587358E+05 -0.4457956E+04  0.2885864E+04  0.3912584E+04
      -0.1325828E+05  0.4457956E+04
   4  -0.1989507E+04  0.2111519E+04 -0.4457956E+04  0.8064000E+04  0.1989507E+04 -0.4726819E+04
       0.4457956E+04 -0.5448700E+04
   5  -0.3536074E+04 -0.3231355E+04  0.2885864E+04  0.1989507E+04  0.6427790E+04  0.3231355E+04
      -0.5777581E+04 -0.1989507E+04
   6  -0.3231355E+04 -0.7954068E+04  0.3912584E+04 -0.4726819E+04  0.3231355E+04  0.1084578E+05
      -0.3912584E+04  0.1835102E+04
   7   0.3137529E+04  0.3912584E+04 -0.1325828E+05  0.4457956E+04 -0.5777581E+04 -0.3912584E+04
       0.1589833E+05 -0.4457956E+04
   8   0.1989507E+04 -0.4475154E+04  0.4457956E+04 -0.5448700E+04 -0.1989507E+04  0.1835102E+04
      -0.4457956E+04  0.8088752E+04

      STIFFNESS MATRIX FOR ELEMENT      798          PLANE182
   1   0.1195687E+05 -0.5457856E+04  0.7526913E+04 -0.9512132E+03 -0.8870612E+04  0.5457856E+04
      -0.1061317E+05  0.9512132E+03
   2  -0.5457856E+04  0.1109835E+05 -0.2874290E+04 -0.2419039E+04  0.5457856E+04 -0.8012097E+04
       0.2874290E+04 -0.6672156E+03
   3   0.7526913E+04 -0.2874290E+04  0.1459246E+05  0.3564639E+04 -0.1044188E+05  0.2874290E+04
      -0.1167750E+05 -0.3564639E+04
   4  -0.9512132E+03 -0.2419039E+04  0.3564639E+04  0.7060460E+04  0.9512132E+03 -0.4959238E+03
      -0.3564639E+04 -0.4145498E+04
   5  -0.8870612E+04  0.5457856E+04 -0.1044188E+05  0.9512132E+03  0.1147726E+05 -0.5457856E+04
       0.7835226E+04 -0.9512132E+03
   6   0.5457856E+04 -0.8012097E+04  0.2874290E+04 -0.4959238E+03 -0.5457856E+04  0.1061875E+05
      -0.2874290E+04 -0.2110725E+04
   7  -0.1061317E+05  0.2874290E+04 -0.1167750E+05 -0.3564639E+04  0.7835226E+04 -0.2874290E+04
       0.1445544E+05  0.3564639E+04
   8   0.9512132E+03 -0.6672156E+03 -0.3564639E+04 -0.4145498E+04 -0.9512132E+03 -0.2110725E+04
       0.3564639E+04  0.6923439E+04

      STIFFNESS MATRIX FOR ELEMENT       15          PLANE182
   1   0.7389427E+04  0.3933640E+04 -0.7436810E+04 -0.1203514E+04 -0.4995139E+04 -0.3933640E+04
       0.5042522E+04  0.1203514E+04
   2   0.3933640E+04  0.9343317E+04 -0.3126591E+04  0.1395271E+04 -0.3933640E+04 -0.6949029E+04
       0.3126591E+04 -0.3789559E+04
   3  -0.7436810E+04 -0.3126591E+04  0.1568491E+05 -0.4684326E+04  0.4855124E+04  0.3126591E+04
      -0.1310322E+05  0.4684326E+04
   4  -0.1203514E+04  0.1395271E+04 -0.4684326E+04  0.8289422E+04  0.1203514E+04 -0.3976957E+04
       0.4684326E+04 -0.5707736E+04
   5  -0.4995139E+04 -0.3933640E+04  0.4855124E+04  0.1203514E+04  0.7954834E+04  0.3933640E+04
      -0.7814819E+04 -0.1203514E+04
   6  -0.3933640E+04 -0.6949029E+04  0.3126591E+04 -0.3976957E+04  0.3933640E+04  0.9908724E+04
      -0.3126591E+04  0.1017262E+04
   7   0.5042522E+04  0.3126591E+04 -0.1310322E+05  0.4684326E+04 -0.7814819E+04 -0.3126591E+04
       0.1587552E+05 -0.4684326E+04
   8   0.1203514E+04 -0.3789559E+04  0.4684326E+04 -0.5707736E+04 -0.1203514E+04  0.1017262E+04
      -0.4684326E+04  0.8480033E+04

      STIFFNESS MATRIX FOR ELEMENT      799          PLANE182
   1   0.1410700E+05 -0.5488156E+04  0.8004887E+04  0.3821975E+03 -0.1109081E+05  0.5488156E+04
      -0.1102108E+05 -0.3821975E+03
   2  -0.5488156E+04  0.1009510E+05 -0.1540879E+04 -0.2656153E+04  0.5488156E+04 -0.7078912E+04
       0.1540879E+04 -0.3600386E+03
   3   0.8004887E+04 -0.1540879E+04  0.1311365E+05  0.4150441E+04 -0.1105110E+05  0.1540879E+04
      -0.1006743E+05 -0.4150441E+04
   4   0.3821975E+03 -0.2656153E+04  0.4150441E+04  0.7828836E+04 -0.3821975E+03 -0.3900653E+03
      -0.4150441E+04 -0.4782618E+04
   5  -0.1109081E+05  0.5488156E+04 -0.1105110E+05 -0.3821975E+03  0.1382089E+05 -0.5488156E+04
       0.8321023E+04  0.3821975E+03
   6   0.5488156E+04 -0.7078912E+04  0.1540879E+04 -0.3900653E+03 -0.5488156E+04  0.9808994E+04
      -0.1540879E+04 -0.2340017E+04
   7  -0.1102108E+05  0.1540879E+04 -0.1006743E+05 -0.4150441E+04  0.8321023E+04 -0.1540879E+04
       0.1276749E+05  0.4150441E+04
   8  -0.3821975E+03 -0.3600386E+03 -0.4150441E+04 -0.4782618E+04  0.3821975E+03 -0.2340017E+04
       0.4150441E+04  0.7482673E+04

      STIFFNESS MATRIX FOR ELEMENT       14          PLANE182
   1   0.1517610E+05 -0.5041862E+04  0.6535244E+04  0.2020916E+04 -0.1241304E+05  0.5041862E+04
      -0.9298302E+04 -0.2020916E+04
   2  -0.5041862E+04  0.8933811E+04  0.9783864E+02 -0.3461830E+04  0.5041862E+04 -0.6170753E+04
      -0.9783864E+02  0.6987723E+03
   3   0.6535244E+04  0.9783864E+02  0.1032666E+05  0.4361806E+04 -0.9690987E+04 -0.9783864E+02
      -0.7170914E+04 -0.4361806E+04
   4   0.2020916E+04 -0.3461830E+04  0.4361806E+04  0.9127439E+04 -0.2020916E+04  0.3060867E+03
      -0.4361806E+04 -0.5971696E+04
   5  -0.1241304E+05  0.5041862E+04 -0.9690987E+04 -0.2020916E+04  0.1517658E+05 -0.5041862E+04
       0.6927444E+04  0.2020916E+04
   6   0.5041862E+04 -0.6170753E+04 -0.9783864E+02  0.3060867E+03 -0.5041862E+04  0.8934296E+04
       0.9783864E+02 -0.3069630E+04
   7  -0.9298302E+04 -0.9783864E+02 -0.7170914E+04 -0.4361806E+04  0.6927444E+04  0.9783864E+02
       0.9541772E+04  0.4361806E+04
   8  -0.2020916E+04  0.6987723E+03 -0.4361806E+04 -0.5971696E+04  0.2020916E+04 -0.3069630E+04
       0.4361806E+04  0.8342553E+04

 Range of element maximum matrix coefficients in global coordinates
 Maximum = 45093.9167 at element 2971.                                   
 Minimum = 10718.8424 at element 1819.                                   

   *** ELEMENT MATRIX FORMULATION TIMES
     TYPE    NUMBER   ENAME      TOTAL CP  AVE CP

        1      3005  PLANE182      0.094   0.000031
 Time at end of element matrix formulation CP = 0.328125.                

 DISTRIBUTED SPARSE MATRIX DIRECT SOLVER.
  Number of equations =        6128,    Maximum wavefront =     16

  Local memory allocated for solver              =      3.239 MB
  Local memory required for in-core solution     =      3.123 MB
  Local memory required for out-of-core solution =      1.906 MB

  Total memory allocated for solver              =      6.444 MB
  Total memory required for in-core solution     =      6.213 MB
  Total memory required for out-of-core solution =      3.825 MB

 *** NOTE ***                            CP =       0.359   TIME= 16:40:16
 The Distributed Sparse Matrix Solver is currently running in the        
 in-core memory mode.  This memory mode uses the most amount of memory   
 in order to avoid using the hard drive as much as possible, which most  
 often results in the fastest solution time.  This mode is recommended   
 if enough physical memory is present to accommodate all of the solver   
 data.                                                                   
 Distributed sparse solver maximum pivot= 83285.7415 at node 2817 UX.    
 Distributed sparse solver minimum pivot= 3882.13329 at node 1263 UX.    
 Distributed sparse solver minimum pivot in absolute value= 3882.13329   
 at node 1263 UX.                                                        

   *** ELEMENT RESULT CALCULATION TIMES
     TYPE    NUMBER   ENAME      TOTAL CP  AVE CP

        1      3005  PLANE182      0.047   0.000016

   *** NODAL LOAD CALCULATION TIMES
     TYPE    NUMBER   ENAME      TOTAL CP  AVE CP

        1      3005  PLANE182      0.000   0.000000
 *** LOAD STEP     1   SUBSTEP     1  COMPLETED.    CUM ITER =      1
 *** TIME =   1.00000         TIME INC =   1.00000      NEW TRIANG MATRIX


 *** ANSYS BINARY FILE STATISTICS
  BUFFER SIZE USED= 16384
        0.562 MB WRITTEN ON ASSEMBLED MATRIX FILE: top2d0.full
        1.125 MB WRITTEN ON RESULTS FILE: top2d0.rst

 SET PARAMETER DIMENSIONS ON  ELEMENTS_NODES
  TYPE=ARRA  DIMENSIONS=     3005        4        1

 VECTOR GET OPERATION  ELEMENTS_NODES(1,1)  VECTOR LENGTH=    3005
 NAME= ELEM         1  NODE  1   

 VECTOR GET OPERATION  ELEMENTS_NODES(1,2)  VECTOR LENGTH=    3005
 NAME= ELEM         1  NODE  2   

 VECTOR GET OPERATION  ELEMENTS_NODES(1,3)  VECTOR LENGTH=    3005
 NAME= ELEM         1  NODE  3   

 VECTOR GET OPERATION  ELEMENTS_NODES(1,4)  VECTOR LENGTH=    3005
 NAME= ELEM         1  NODE  4   

 OPENED FILE= elements_nodes.txt FOR COMMAND FILE DATA 


  COMMAND FILE CLOSED 


 SET PARAMETER DIMENSIONS ON  ELEMENTS_CENTERS
  TYPE=ARRA  DIMENSIONS=     3005        3        1

 VECTOR GET OPERATION  ELEMENTS_CENTERS(1,1)  VECTOR LENGTH=    3005
 NAME= ELEM         1  CENT  X   

 VECTOR GET OPERATION  ELEMENTS_CENTERS(1,2)  VECTOR LENGTH=    3005
 NAME= ELEM         1  CENT  Y   

 VECTOR GET OPERATION  ELEMENTS_CENTERS(1,3)  VECTOR LENGTH=    3005
 NAME= ELEM         1  CENT  Z   

 OPENED FILE= elements_centers.txt FOR COMMAND FILE DATA 


  COMMAND FILE CLOSED 


 SET PARAMETER DIMENSIONS ON  NODES_COORDINATE
  TYPE=ARRA  DIMENSIONS=     3198        3        1

 VECTOR GET OPERATION  NODES_COORDINATE(1,1)  VECTOR LENGTH=    3198
 NAME= NODE         1  LOC   X   

 VECTOR GET OPERATION  NODES_COORDINATE(1,2)  VECTOR LENGTH=    3198
 NAME= NODE         1  LOC   Y   

 VECTOR GET OPERATION  NODES_COORDINATE(1,3)  VECTOR LENGTH=    3198
 NAME= NODE         1  LOC   Z   

 OPENED FILE= node_coordinates.txt FOR COMMAND FILE DATA 


  COMMAND FILE CLOSED 


 SET PARAMETER DIMENSIONS ON  ELEMENTS_VOLUMN
  TYPE=ARRA  DIMENSIONS=     3005        1        1

 VECTOR GET OPERATION  ELEMENTS_VOLUMN(1,1)  VECTOR LENGTH=    3005
 NAME= ELEM         1  GEOM      

 OPENED FILE= elements_volumn.txt FOR COMMAND FILE DATA 


  COMMAND FILE CLOSED 


 OPENED FILE= elements_nodes_counts.txt FOR COMMAND FILE DATA 


  COMMAND FILE CLOSED 


 SET PARAMETER DIMENSIONS ON  CONNECTEDELEM
  TYPE=ARRA  DIMENSIONS=      100     3005        1

 SET PARAMETER DIMENSIONS ON  NEIBORS TYPE=ARRA  DIMENSIONS=  3005   100     1

 *DO LOOP ON PARAMETER= I FROM  1.0000     TO  3005.0     BY  1.0000    

 SELECT       FOR ITEM=ELEM COMPONENT=    
  IN RANGE         1 TO          1 STEP          1

          1  ELEMENTS (OF       3005  DEFINED) SELECTED BY  ESEL  COMMAND.

 SELECT      ALL NODES HAVING ANY ELEMENT IN ELEMENT SET.

          4 NODES (OF       3198  DEFINED) SELECTED FROM
        1 SELECTED ELEMENTS BY NSLE COMMAND.

 SELECT      ALL ELEMENTS HAVING ANY NODE IN NODAL SET.

          8 ELEMENTS (OF       3005  DEFINED) SELECTED FROM
        4 SELECTED NODES BY  ESLN COMMAND.

 VECTOR GET OPERATION  connectedelem(1,i)  VECTOR LENGTH=     100
 NAME= ELEM         0  ELIS      

 *ENDDO  INDEX= I                               

 SELECT ALL ENTITIES OF TYPE= ALL  AND BELOW

 MATRIX TRANSPOSE FUNCTION  RESULT MATRIX= neibors(1,1)    
  INPUT MATRIX= connectedelem(1,
  INPUT MATRIX SIZE=       100 ROWS  BY       3005 COLUMNS
 RESULT MATRIX SIZE=      3005 ROWS  BY        100 COLUMNS

 MATRIX WRITE OPERATION  *MWRITE 
  neibors(1,1) WRITE TO FILE neibors.txt
 LOOP DIRECTIONS=JIK   COUNTS=     100    3005       1       1       1
 FORMAT=(100F10.0)                                                            

  COMMAND FILE CLOSED 


 ALL CURRENT ANSYS DATA WRITTEN TO FILE NAME= top2d.db
  FOR POSSIBLE RESUME FROM THIS POINT

 FINISH SOLUTION PROCESSING


 ***** ROUTINE COMPLETED *****  CP =         1.547



 PURGE ALL SOLUTION AND POST DATA
 SAVE ALL MODEL DATA

 ALL CURRENT ANSYS DATA WRITTEN TO FILE NAME= top2d.db
  FOR POSSIBLE RESUME FROM THIS POINT


 NUMBER OF WARNING MESSAGES ENCOUNTERED=          1
 NUMBER OF ERROR   MESSAGES ENCOUNTERED=          0

+--------- D I S T R I B U T E D   A N S Y S   S T A T I S T I C S ------------+

Release: 2020 R2            Build: 20.2       Update: UP20200601   Platform: WINDOWS x64 
Date Run: 11/01/2023   Time: 16:40     Process ID: 26452
Operating System: Windows 10  (Build: 22621)

Processor Model: AMD Ryzen 7 7735H with Radeon Graphics

Compiler: Intel(R) FORTRAN Compiler Version 19.0.0  (Build: 20190206)
          Intel(R) C/C++ Compiler Version 19.0.0  (Build: 20190206)
          Intel(R) Math Kernel Library Version 2020.0.0 Product Build 20191125

Number of machines requested            :    1
Total number of cores available         :   16
Number of physical cores available      :    8
Number of processes requested           :    2
Number of threads per process requested :    1
Total number of cores requested         :    2 (Distributed Memory Parallel)               
MPI Type: INTELMPI
MPI Version: Intel(R) MPI Library 2018 Update 3 for Windows* OS


GPU Acceleration: Not Requested

Job Name: top2d0
Input File: top3d_minf.txt

  Core                Machine Name   Working Directory
 -----------------------------------------------------
     0                   sivertong   D:\CodeSave\GitCode\Topology-optimization-of-structure-via-simp-methodNEW\ANSYS\results
     1                   sivertong   D:\CodeSave\GitCode\Topology-optimization-of-structure-via-simp-methodNEW\ANSYS\results
 
Latency time from master to core     1 =    0.773 microseconds
 
Communication speed from master to core     1 = 13849.22 MB/sec

Total CPU time for main thread                    :        1.0 seconds
Total CPU time summed for all threads             :        1.6 seconds

Elapsed time spent obtaining a license            :        0.8 seconds
Elapsed time spent pre-processing model (/PREP7)  :        0.0 seconds
Elapsed time spent solution - preprocessing       :        0.0 seconds
Elapsed time spent computing solution             :        0.5 seconds
Elapsed time spent solution - postprocessing      :        0.0 seconds
Elapsed time spent post-processing model (/POST1) :        0.0 seconds
 
Equation solver used                              :            Sparse (symmetric)

Maximum total memory used                         :      275.0 MB
Maximum total memory allocated                    :     3136.0 MB
Total physical memory available                   :         15 GB

Total amount of I/O written to disk               :        0.0 GB
Total amount of I/O read from disk                :        0.0 GB

+------ E N D   D I S T R I B U T E D   A N S Y S   S T A T I S T I C S -------+
