*Heading
** Job name: Job-1 Model name: Model-1
** Generated by: Abaqus/CAE 2020
*Preprint, echo=NO, model=NO, history=NO, contact=NO
**
** PARTS
**
*Part, name=plate
*Node
      1,       -28.75,          -5.
      2,       -28.75,         -10.
      3,  -25.2144661,  -11.4644661
      4,  -22.2256966,  -8.47569656
      5,       -23.75,         -15.
      6,       -18.75,         -15.
      7,        21.25,         -15.
      8,        21.25,          -5.
      9,        21.25,          35.
     10,       -18.75,          35.
     11,       -28.75,          35.
     12,  -26.8365822,  -10.3806019
     13,  -25.4878483,  -6.73784828
     14,  -24.1306019,  -13.0865831
     15,  -20.4878483,  -11.7378483
     16,       -13.75,         -15.
     17,        -8.75,         -15.
     18,        -3.75,         -15.
     19,         1.25,         -15.
     20,         6.25,         -15.
** ... 102 like lines cut
*Element, type=CPS4R
  1,   1,   2,  12,  13
  2,  13,  12,   3,   4
  3,   3,  14,  15,   4
  4,  14,   5,   6,  15
  5,   6,  16,  60,  15
  6,  16,  17,  61,  60
  7,  17,  18,  62,  61
  8,  18,  19,  63,  62
  9,  19,  20,  64,  63
 10,  20,  21,  65,  64
 11,  21,  22,  66,  65
 12,  22,   7,  23,  66
 13,  15,  60,  30,   4
 14,  60,  61,  29,  30
 15,  61,  62,  28,  29
 16,  62,  63,  27,  28
 17,  63,  64,  26,  27
 18,  64,  65,  25,  26
 19,  65,  66,  24,  25
 20,  66,  23,   8,  24
** ... 80 like lines cut
*Nset, nset=Set-1, generate
   1,  122,    1
*Elset, elset=Set-1, generate
   1,  100,    1
** Section: section-steel
*Solid Section, elset=Set-1, material=steel
1.,
*End Part
**  
**
** ASSEMBLY
**
*Assembly, name=Assembly
**  
*Instance, name=plate-1, part=plate
*End Instance
**  
*Nset, nset=Set-1, instance=plate-1
  1,  2, 11, 53, 54, 55, 56, 57, 58, 59
*Elset, elset=Set-1, instance=plate-1
   1,  86,  88,  90,  92,  94,  96,  98, 100
*Nset, nset=Set-2, instance=plate-1
  5,  6,  7, 16, 17, 18, 19, 20, 21, 22
*Elset, elset=Set-2, instance=plate-1, generate
  4,  12,   1
*Elset, elset=_Surf-1_S2, internal, instance=plate-1
  12,  20,  86,  88,  90,  92,  94,  96,  98, 100
*Elset, elset=_Surf-1_S1, internal, instance=plate-1
  1, 21, 22, 23, 24, 25, 26, 27, 28
*Surface, type=ELEMENT, name=Surf-1
_Surf-1_S2, S2
_Surf-1_S1, S1
*End Assembly
** 
** MATERIALS
** 
*Material, name=steel
*Elastic
210000., 0.3
** ----------------------------------------------------------------
** 
** STEP: Step-tension
** 
*Step, name=Step-tension, nlgeom=NO
100MPa tension
*Static
1., 1., 1e-05, 1.
** 
** BOUNDARY CONDITIONS
** 
** Name: BC-1 Type: Symmetry/Antisymmetry/Encastre
*Boundary
Set-1, XSYMM
** Name: BC-2 Type: Symmetry/Antisymmetry/Encastre
*Boundary
Set-2, YSYMM
** 
** LOADS
** 
** Name: Load-tension   Type: Pressure
*Dsload
Surf-1, P, -100.
** 
** OUTPUT REQUESTS
** 
*Restart, write, frequency=0
** 
** FIELD OUTPUT: F-Output-1
** 
*Output, field, variable=PRESELECT
** 
** HISTORY OUTPUT: H-Output-1
** 
*Output, history, variable=PRESELECT
*End Step
