
 ANSYS Mechanical Enterprise                       


 *------------------------------------------------------------------*
 |                                                                  |
 |   W E L C O M E   T O   T H E   A N S Y S (R)  P R O G R A M     |
 |                                                                  |
 *------------------------------------------------------------------*




 ***************************************************************
 *            ANSYS 2020 R2          LEGAL NOTICES             *
 ***************************************************************
 *                                                             *
 * Copyright 1971-2020 ANSYS, Inc.  All rights reserved.       *
 * Unauthorized use, distribution or duplication is            *
 * prohibited.                                                 *
 *                                                             *
 * Ansys is a registered trademark of ANSYS, Inc. or its       *
 * subsidiaries in the United States or other countries.       *
 * See the ANSYS, Inc. online documentation or the ANSYS, Inc. *
 * documentation CD or online help for the complete Legal      *
 * Notice.                                                     *
 *                                                             *
 ***************************************************************
 *                                                             *
 * THIS ANSYS SOFTWARE PRODUCT AND PROGRAM DOCUMENTATION       *
 * INCLUDE TRADE SECRETS AND CONFIDENTIAL AND PROPRIETARY      *
 * PRODUCTS OF ANSYS, INC., ITS SUBSIDIARIES, OR LICENSORS.    *
 * The software products and documentation are furnished by    *
 * ANSYS, Inc. or its subsidiaries under a software license    *
 * agreement that contains provisions concerning               *
 * non-disclosure, copying, length and nature of use,          *
 * compliance with exporting laws, warranties, disclaimers,    *
 * limitations of liability, and remedies, and other           *
 * provisions.  The software products and documentation may be *
 * used, disclosed, transferred, or copied only in accordance  *
 * with the terms and conditions of that software license      *
 * agreement.                                                  *
 *                                                             *
 * ANSYS, Inc. is a UL registered                              *
 * ISO 9001:2015 company.                                      *
 *                                                             *
 ***************************************************************
 *                                                             *
 * This product is subject to U.S. laws governing export and   *
 * re-export.                                                  *
 *                                                             *
 * For U.S. Government users, except as specifically granted   *
 * by the ANSYS, Inc. software license agreement, the use,     *
 * duplication, or disclosure by the United States Government  *
 * is subject to restrictions stated in the ANSYS, Inc.        *
 * software license agreement and FAR 12.212 (for non-DOD      *
 * licenses).                                                  *
 *                                                             *
 ***************************************************************

 2020 R2 
     
 Point Releases and Patches installed:   
     
 ANSYS, Inc. Products 2020 R2
 SpaceClaim 2020 R2  
 Discovery 2020 R2   
 AIM 2020 R2 
 Live (includes SpaceClaim) 2020 R2  
 ANSYS Sherlock 2020 R2  
 Autodyn 2020 R2 
 LS-DYNA 2020 R2 
 ICEM CFD 2020 R2
 Aqwa 2020 R2
 SPEOS 2020 R2   
 Mechanical Products 2020 R2 
 Additive 2020 R2
 Icepak (includes CFD-Post) 2020 R2  
 ACIS Geometry Interface 2020 R2 
 AutoCAD Geometry Interface 2020 R2  
 Catia, Version 4 Geometry Interface 2020 R2 
 Catia, Version 5 Geometry Interface 2020 R2 
 Catia, Version 6 Geometry Interface 2020 R2 
 Creo Elements/Direct Modeling Geometry Interface 2020 R2
 Creo Parametric Geometry Interface 2020 R2  
 Inventor Geometry Interface 2020 R2 
 JTOpen Geometry Interface 2020 R2   
 NX Geometry Interface 2020 R2   
 Parasolid Geometry Interface  2020 R2   
 Solid Edge Geometry Interface 2020 R2   
 SOLIDWORKS Geometry Interface 2020 R2   
 ANSYS, Inc. License Manager 2020 R2 


          *****  ANSYS COMMAND LINE ARGUMENTS  *****
  BATCH MODE REQUESTED (-b)    = LIST
  INPUT FILE COPY MODE (-c)    = COPY
  SHARED MEMORY PARALLEL REQUESTED
  INPUT FILE NAME              = D:\CodeSave\GitCode\Topology-optimization-of-structure-via-simp-methodNEW\ANSYS\results\top2d_rinf.txt
  OUTPUT FILE NAME             = D:\CodeSave\GitCode\Topology-optimization-of-structure-via-simp-methodNEW\ANSYS\results\top2d_rinf.out

 PARAMETER STATUS-           (   1 PARAMETERS DEFINED)

 NAME                              VALUE                        TYPE
 P ANSYS                                                         CHARACTER

 RELEASE= 2020 R2              BUILD= 20.2      UP20200601   VERSION=WINDOWS x64 
 CURRENT JOBNAME=file  16:39:28  OCT 31, 2023 CP=      0.156

     1  /CWD,'D:\CodeSave\GitCode\Topology-optimization-of-structure-via-simp-methodNEW\ANSYS\results'  
     2  RESUME,'cantilever_grid','db','D:\CodeSave\GitCode\Topology-optimization-of-structure-via-simp-methodNEW\ANSYS\models',0,0  
     3  /FILENAME,top2d,1   
     4  /TITLE,top2d
     5      
     6  *GET,ELEMSUM,ELEMENT,0,COUNT
     7  *GET,NODESUM,NODE,0,COUNT   
     8      
     9      
    10  *DIM,MATERIAL,ARRAY,ELEMSUM,2   
    11  *VREAD,MATERIAL(1,1),material,txt,,JIK,2,ELEMSUM
    12  (F15.7,F15.7)   
    13      
    14      
    15  /PREP7  
    16  *DO,i,1,ELEMSUM 
    17  MP,EX,i,MATERIAL(i,2)   
    18  MP,PRXY,i,MATERIAL(i,1) 
    19  *ENDDO  
    20      
    21      
    22  *DO,i,1,ELEMSUM 
    23  EMODIF,i,MAT,i, 
    24  *ENDDO  
    25      
    26      
    27  /SOL
    28  ANTYPE,0
    29      
    30      
    31  /STATUS,SOLU
    32  SOLVE   
    33      
    34      
    35      
    36  *DIM,NODAL_SOLUTION_STRESS,ARRAY,NODESUM,1  
    37  *VGET,NODAL_SOLUTION_STRESS(1,1),NODE,1,S,EQV   
    38  *CFOPEN,nodal_solution_stress,txt   
    39  *VWRITE,SEQU,NODAL_SOLUTION_STRESS(1,1) 
    40  %10I    %15.7E  
    41  *CFCLOS 
    42      
    43  *DIM,NODAL_SOLUTION_STRAIN,ARRAY,NODESUM,1  
    44  *VGET,NODAL_SOLUTION_STRAIN(1,1),NODE,1,EPTO,INT
    45  *CFOPEN,nodal_solution_strain,txt   
    46  *VWRITE,SEQU,NODAL_SOLUTION_STRAIN(1,1) 
    47  %10I    %15.7E  
    48  *CFCLOS 
    49      
    50      
    51  *DIM,NODAL_SOLUTION_U,ARRAY,NODESUM,2   
    52  *VGET,NODAL_SOLUTION_U(1,1),NODE,1,U,X  
    53  *VGET,NODAL_SOLUTION_U(1,2),NODE,1,U,Y  
    54  *CFOPEN,nodal_solution_u,txt
    55  *VWRITE,NODAL_SOLUTION_U(1,1), NODAL_SOLUTION_U(1,2)
    56  (E15.7,'    ',E15.7)
    57  *CFCLOS 
    58      
    59  *CFOPEN,testout,txt 
    60  *VWRITE,MATERIAL(1,1),MATERIAL(1,2) 
    61  (F15.7,F15.7)   
    62  *CFCLOS 

 RUN SETUP PROCEDURE FROM FILE= D:\Ansys\ANSYS Inc\v202\ANSYS\apdl\start.ans

 /INPUT FILE= D:\Ansys\ANSYS Inc\v202\ANSYS\apdl\start.ans  LINE=       0

 Current working directory switched to D:\CodeSave\GitCode\Topology-optimization-of-structure-via-simp-methodNEW\ANSYS\results                                                                                                                                                                 

 RESUME ANSYS DATA FROM FILE NAME=D:\CodeSave\GitCode\Topology-optimization-of-structure-via-simp-methodNEW\ANSYS\models\cantilever_grid.db                                                                                                                                                           

 *** ANSYS GLOBAL STATUS *** 

 TITLE = meshmodel                                                             
 ANALYSIS TYPE =  STATIC (STEADY-STATE)
 NUMBER OF ELEMENT TYPES =      1
       640 ELEMENTS CURRENTLY SELECTED.  MAX ELEMENT NUMBER =         640
       693 NODES CURRENTLY SELECTED.     MAX NODE NUMBER =            693
         4 KEYPOINTS CURRENTLY SELECTED. MAX KEYPOINT NUMBER =          4
         4 LINES CURRENTLY SELECTED.     MAX LINE NUMBER =              4
         1 AREAS CURRENTLY SELECTED.     MAX AREA NUMBER =              1
 MAXIMUM LINEAR PROPERTY NUMBER        =       1
 ACTIVE COORDINATE SYSTEM              =       0  (CARTESIAN)  
 NUMBER OF SPECIFIED CONSTRAINTS       =      42
 NUMBER OF NODAL LOADS                 =       1

 INITIAL JOBNAME = file
 CURRENT JOBNAME = file

 CURRENT JOBNAME REDEFINED AS top2d
     Opening new LOG, ERROR, LOCK and PAGE FILES

 TITLE= 
 top2d                                                                         


 *GET  ELEMSUM   FROM  ELEM  ITEM=COUN           VALUE=  640.000000    

 *GET  NODESUM   FROM  NODE  ITEM=COUN       VALUE=  693.000000     

 SET PARAMETER DIMENSIONS ON  MATERIAL TYPE=ARRA  DIMENSIONS=   640     2     1

 VECTOR READ OPERATION  *VREAD  
  MATERIAL READ FROM FILE material.txt
 VECTOR LENGTH=      2
 NUMBER OF COLUMNS=    640
 LOOP DIRECTIONS=JIK   COUNTS=       2     640       1
 FORMAT=(F15.7,F15.7)                                                         

 *** ANSYS - ENGINEERING ANALYSIS SYSTEM  RELEASE 2020 R2          20.2     ***
 ANSYS Mechanical Enterprise                       
 20120530  VERSION=WINDOWS x64   16:39:30  OCT 31, 2023 CP=      0.203

 top2d                                                                         



          ***** ANSYS ANALYSIS DEFINITION (PREP7) *****

 *DO LOOP ON PARAMETER= I FROM  1.0000     TO  640.00     BY  1.0000    

 MATERIAL          1     EX   =  0.6400000E-01  

 MATERIAL          1     PRXY =  0.3000000      

 *ENDDO  INDEX= I                               

 *DO LOOP ON PARAMETER= I FROM  1.0000     TO  640.00     BY  1.0000    

 MODIFY ELEMENT         1 (IF SELECTED) TO HAVE  MAT  =      1
     ELEM    MAT   TYP   REL   SEC   ESYS         NODES
       1   1   1      1      1    0       1     3   105   104

 *ENDDO  INDEX= I                               


 ***** ROUTINE COMPLETED *****  CP =         0.203



 *****  ANSYS SOLUTION ROUTINE  *****


 PERFORM A STATIC ANALYSIS
  THIS WILL BE A NEW ANALYSIS

                       S O L U T I O N   O P T I O N S

   PROBLEM DIMENSIONALITY. . . . . . . . . . . . .2-D                  
   DEGREES OF FREEDOM. . . . . . UX   UY  
   ANALYSIS TYPE . . . . . . . . . . . . . . . . .STATIC (STEADY-STATE)
   GLOBALLY ASSEMBLED MATRIX . . . . . . . . . . .SYMMETRIC  

                      L O A D   S T E P   O P T I O N S

   LOAD STEP NUMBER. . . . . . . . . . . . . . . .     1
   TIME AT END OF THE LOAD STEP. . . . . . . . . .  1.0000    
   NUMBER OF SUBSTEPS. . . . . . . . . . . . . . .     1
   STEP CHANGE BOUNDARY CONDITIONS . . . . . . . .DEFAULT
   PRINT OUTPUT CONTROLS . . . . . . . . . . . . .NO PRINTOUT
   DATABASE OUTPUT CONTROLS. . . . . . . . . . . .ALL DATA WRITTEN
                                                  FOR THE LAST SUBSTEP


 *****  ANSYS SOLVE    COMMAND  *****

 *** SELECTION OF ELEMENT TECHNOLOGIES FOR APPLICABLE ELEMENTS ***
                ---GIVE SUGGESTIONS ONLY---

 ELEMENT TYPE  1 IS PLANE182 WITH PLANE STRESS OPTION. IT IS ASSOCIATED WITH
 LINEAR MATERIALS ONLY. KEYOPT(1)=2 IS SUGGESTED.



 *** ANSYS - ENGINEERING ANALYSIS SYSTEM  RELEASE 2020 R2          20.2     ***
 ANSYS Mechanical Enterprise                       
 20120530  VERSION=WINDOWS x64   16:39:30  OCT 31, 2023 CP=      0.203

 top2d                                                                         



                       S O L U T I O N   O P T I O N S

   PROBLEM DIMENSIONALITY. . . . . . . . . . . . .2-D                  
   DEGREES OF FREEDOM. . . . . . UX   UY  
   ANALYSIS TYPE . . . . . . . . . . . . . . . . .STATIC (STEADY-STATE)
   GLOBALLY ASSEMBLED MATRIX . . . . . . . . . . .SYMMETRIC  

 *** NOTE ***                            CP =       0.203   TIME= 16:39:30
 Present time 0 is less than or equal to the previous time.  Time will   
 default to 1.                                                           

 *** NOTE ***                            CP =       0.203   TIME= 16:39:30
 The conditions for direct assembly have been met.  No .emat or .erot    
 files will be produced.                                                 

                      L O A D   S T E P   O P T I O N S

   LOAD STEP NUMBER. . . . . . . . . . . . . . . .     1
   TIME AT END OF THE LOAD STEP. . . . . . . . . .  1.0000    
   NUMBER OF SUBSTEPS. . . . . . . . . . . . . . .     1
   STEP CHANGE BOUNDARY CONDITIONS . . . . . . . .    NO
   PRINT OUTPUT CONTROLS . . . . . . . . . . . . .NO PRINTOUT
   DATABASE OUTPUT CONTROLS. . . . . . . . . . . .ALL DATA WRITTEN
                                                  FOR THE LAST SUBSTEP


 SOLUTION MONITORING INFO IS WRITTEN TO FILE= top2d.mntr                                                                                                                                                                                                                                                          


 Range of element maximum matrix coefficients in global coordinates
 Maximum = 3.164835165E-02 at element 604.                               
 Minimum = 3.164835165E-02 at element 571.                               

   *** ELEMENT MATRIX FORMULATION TIMES
     TYPE    NUMBER   ENAME      TOTAL CP  AVE CP

        1       640  PLANE182      0.000   0.000000
 Time at end of element matrix formulation CP = 0.21875.                 

 SPARSE MATRIX DIRECT SOLVER.
  Number of equations =        1344,    Maximum wavefront =     10
  Memory allocated for solver              =     1.245 MB
  Memory required for in-core solution     =     1.202 MB
  Memory required for out-of-core solution =     0.685 MB

 *** NOTE ***                            CP =       0.219   TIME= 16:39:30
 The Sparse Matrix Solver is currently running in the in-core memory     
 mode.  This memory mode uses the most amount of memory in order to      
 avoid using the hard drive as much as possible, which most often        
 results in the fastest solution time.  This mode is recommended if      
 enough physical memory is present to accommodate all of the solver      
 data.                                                                   
 Sparse solver maximum pivot= 0.126593407 at node 153 UY.                
 Sparse solver minimum pivot= 1.545413349E-02 at node 361 UY.            
 Sparse solver minimum pivot in absolute value= 1.545413349E-02 at node  
 361 UY.                                                                 

   *** ELEMENT RESULT CALCULATION TIMES
     TYPE    NUMBER   ENAME      TOTAL CP  AVE CP

        1       640  PLANE182      0.031   0.000049

   *** NODAL LOAD CALCULATION TIMES
     TYPE    NUMBER   ENAME      TOTAL CP  AVE CP

        1       640  PLANE182      0.000   0.000000
 *** LOAD STEP     1   SUBSTEP     1  COMPLETED.    CUM ITER =      1
 *** TIME =   1.00000         TIME INC =   1.00000      NEW TRIANG MATRIX


 *** ANSYS BINARY FILE STATISTICS
  BUFFER SIZE USED= 16384
        0.250 MB WRITTEN ON ASSEMBLED MATRIX FILE: top2d.full
        1.125 MB WRITTEN ON RESULTS FILE: top2d.rst

 SET PARAMETER DIMENSIONS ON  NODAL_SOLUTION_STRESS
  TYPE=ARRA  DIMENSIONS=      693        1        1

 VECTOR GET OPERATION  NODAL_SOLUTION_STRESS(1,1)  VECTOR LENGTH=     693
 NAME= NODE         1  S     EQV 

 OPENED FILE= nodal_solution_stress.txt FOR COMMAND FILE DATA 


  COMMAND FILE CLOSED 


 SET PARAMETER DIMENSIONS ON  NODAL_SOLUTION_STRAIN
  TYPE=ARRA  DIMENSIONS=      693        1        1

 VECTOR GET OPERATION  NODAL_SOLUTION_STRAIN(1,1)  VECTOR LENGTH=     693
 NAME= NODE         1  EPTO  INT 

 OPENED FILE= nodal_solution_strain.txt FOR COMMAND FILE DATA 


  COMMAND FILE CLOSED 


 SET PARAMETER DIMENSIONS ON  NODAL_SOLUTION_U
  TYPE=ARRA  DIMENSIONS=      693        2        1

 VECTOR GET OPERATION  NODAL_SOLUTION_U(1,1)  VECTOR LENGTH=     693
 NAME= NODE         1  U     X   

 VECTOR GET OPERATION  NODAL_SOLUTION_U(1,2)  VECTOR LENGTH=     693
 NAME= NODE         1  U     Y   

 OPENED FILE= nodal_solution_u.txt FOR COMMAND FILE DATA 


  COMMAND FILE CLOSED 


 OPENED FILE= testout.txt FOR COMMAND FILE DATA 


  COMMAND FILE CLOSED 


 ***** END OF INPUT ENCOUNTERED *****

 END OF INPUT FINISHES SOLUTION PROCESSING


 NUMBER OF WARNING MESSAGES ENCOUNTERED=          0
 NUMBER OF ERROR   MESSAGES ENCOUNTERED=          0



 ***** PROBLEM TERMINATED BY INDICATED ERROR(S) OR BY END OF INPUT DATA *****

+--------------------- A N S Y S   S T A T I S T I C S ------------------------+

Release: 2020 R2            Build: 20.2       Update: UP20200601   Platform: WINDOWS x64 
Date Run: 10/31/2023   Time: 16:39     Process ID: 11572
Operating System: Windows 10  (Build: 22621)

Processor Model: AMD Ryzen 7 7735H with Radeon Graphics

Compiler: Intel(R) FORTRAN Compiler Version 19.0.0  (Build: 20190206)
          Intel(R) C/C++ Compiler Version 19.0.0  (Build: 20190206)
          Intel(R) Math Kernel Library Version 2020.0.0 Product Build 20191125

Number of machines requested            :    1
Total number of cores available         :   16
Number of physical cores available      :    8
Number of processes requested           :    1
Number of threads per process requested :    2
Total number of cores requested         :    2 (Shared Memory Parallel)                    

GPU Acceleration: Not Requested

Job Name: top2d
Input File: top2d_rinf.txt
Working Directory: D:\CodeSave\GitCode\Topology-optimization-of-structure-via-simp-methodNEW\ANSYS\results

Total CPU time for main thread                    :        0.3 seconds
Total CPU time summed for all threads             :        0.4 seconds

Elapsed time spent obtaining a license            :        0.7 seconds
Elapsed time spent pre-processing model (/PREP7)  :        0.0 seconds
Elapsed time spent solution - preprocessing       :        0.0 seconds
Elapsed time spent computing solution             :        0.0 seconds
Elapsed time spent solution - postprocessing      :        0.0 seconds
Elapsed time spent post-processing model (/POST1) :        0.0 seconds
 
Equation solver used                              :            Sparse (symmetric)

Maximum total memory used                         :       41.0 MB
Maximum total memory allocated                    :     2112.0 MB
Total physical memory available                   :         15 GB

Total amount of I/O written to disk               :        0.0 GB
Total amount of I/O read from disk                :        0.0 GB

+------------------ E N D   A N S Y S   S T A T I S T I C S -------------------+


 *---------------------------------------------------------------------------*
 |                                                                           |
 |                            ANSYS RUN COMPLETED                            |
 |                                                                           |
 |---------------------------------------------------------------------------|
 |                                                                           |
 | Ansys 2020 R2               Build 20.2         UP20200601     WINDOWS x64 |
 |                                                                           |
 |---------------------------------------------------------------------------|
 |                                                                           |
 | Database Requested(-db)  1024 MB    Scratch Memory Requested      1024 MB |
 | Maximum Database Used       3 MB    Maximum Scratch Memory Used     38 MB |
 |                                                                           |
 |---------------------------------------------------------------------------|
 |                                                                           |
 |        CP Time      (sec) =          0.375       Time  =  16:39:31        |
 |        Elapsed Time (sec) =          4.000       Date  =  10/31/2023      |
 |                                                                           |
 *---------------------------------------------------------------------------*
