
 ANSYS Mechanical Enterprise                       


 *------------------------------------------------------------------*
 |                                                                  |
 |   W E L C O M E   T O   T H E   A N S Y S (R)  P R O G R A M     |
 |                                                                  |
 *------------------------------------------------------------------*




 ***************************************************************
 *            ANSYS 2020 R2          LEGAL NOTICES             *
 ***************************************************************
 *                                                             *
 * Copyright 1971-2020 ANSYS, Inc.  All rights reserved.       *
 * Unauthorized use, distribution or duplication is            *
 * prohibited.                                                 *
 *                                                             *
 * Ansys is a registered trademark of ANSYS, Inc. or its       *
 * subsidiaries in the United States or other countries.       *
 * See the ANSYS, Inc. online documentation or the ANSYS, Inc. *
 * documentation CD or online help for the complete Legal      *
 * Notice.                                                     *
 *                                                             *
 ***************************************************************
 *                                                             *
 * THIS ANSYS SOFTWARE PRODUCT AND PROGRAM DOCUMENTATION       *
 * INCLUDE TRADE SECRETS AND CONFIDENTIAL AND PROPRIETARY      *
 * PRODUCTS OF ANSYS, INC., ITS SUBSIDIARIES, OR LICENSORS.    *
 * The software products and documentation are furnished by    *
 * ANSYS, Inc. or its subsidiaries under a software license    *
 * agreement that contains provisions concerning               *
 * non-disclosure, copying, length and nature of use,          *
 * compliance with exporting laws, warranties, disclaimers,    *
 * limitations of liability, and remedies, and other           *
 * provisions.  The software products and documentation may be *
 * used, disclosed, transferred, or copied only in accordance  *
 * with the terms and conditions of that software license      *
 * agreement.                                                  *
 *                                                             *
 * ANSYS, Inc. is a UL registered                              *
 * ISO 9001:2015 company.                                      *
 *                                                             *
 ***************************************************************
 *                                                             *
 * This product is subject to U.S. laws governing export and   *
 * re-export.                                                  *
 *                                                             *
 * For U.S. Government users, except as specifically granted   *
 * by the ANSYS, Inc. software license agreement, the use,     *
 * duplication, or disclosure by the United States Government  *
 * is subject to restrictions stated in the ANSYS, Inc.        *
 * software license agreement and FAR 12.212 (for non-DOD      *
 * licenses).                                                  *
 *                                                             *
 ***************************************************************

 2020 R2 
     
 Point Releases and Patches installed:   
     
 ANSYS, Inc. Products 2020 R2
 SpaceClaim 2020 R2  
 Discovery 2020 R2   
 AIM 2020 R2 
 Live (includes SpaceClaim) 2020 R2  
 ANSYS Sherlock 2020 R2  
 Autodyn 2020 R2 
 LS-DYNA 2020 R2 
 ICEM CFD 2020 R2
 Aqwa 2020 R2
 SPEOS 2020 R2   
 Mechanical Products 2020 R2 
 Additive 2020 R2
 Icepak (includes CFD-Post) 2020 R2  
 ACIS Geometry Interface 2020 R2 
 AutoCAD Geometry Interface 2020 R2  
 Catia, Version 4 Geometry Interface 2020 R2 
 Catia, Version 5 Geometry Interface 2020 R2 
 Catia, Version 6 Geometry Interface 2020 R2 
 Creo Elements/Direct Modeling Geometry Interface 2020 R2
 Creo Parametric Geometry Interface 2020 R2  
 Inventor Geometry Interface 2020 R2 
 JTOpen Geometry Interface 2020 R2   
 NX Geometry Interface 2020 R2   
 Parasolid Geometry Interface  2020 R2   
 Solid Edge Geometry Interface 2020 R2   
 SOLIDWORKS Geometry Interface 2020 R2   
 ANSYS, Inc. License Manager 2020 R2 


          *****  ANSYS COMMAND LINE ARGUMENTS  *****
  BATCH MODE REQUESTED (-b)    = LIST
  INPUT FILE COPY MODE (-c)    = COPY
  INPUT FILE NAME              = D:\CodeSave\GitCode\Topology-optimization-of-structure-via-simp-methodNEW\ANSYS\results\top2d_minf.txt
  OUTPUT FILE NAME             = D:\CodeSave\GitCode\Topology-optimization-of-structure-via-simp-methodNEW\ANSYS\results\top2d_minf.out

 RELEASE= 2020 R2              BUILD= 20.2      UP20200601   VERSION=WINDOWS x64 
 CURRENT JOBNAME=file0  20:44:12  OCT 31, 2023 CP=      0.188

     1  /CWD,'D:\CodeSave\GitCode\Topology-optimization-of-structure-via-simp-methodNEW\ANSYS\results'  
     2  RESUME,'complex2D_grid','db','D:\CodeSave\GitCode\Topology-optimization-of-structure-via-simp-methodNEW\ANSYS\models',0,0   
     3  /FILENAME,top2d,1   
     4  /TITLE,top2d
     5      
     6  *GET,ELEMSUM,ELEMENT,0,COUNT
     7  *GET,NODESUM,NODE,0,COUNT   
     8  *CFOPEN,elements_nodes_counts,txt   
     9  *VWRITE,ELEMSUM,NODESUM 
    10  %10I    %10I
    11  *CFCLOS 
    12      
    13  /SOL
    14  ANTYPE,0
    15      
    16  /OUTPUT,elements_stiffness,out,,
    17  /DEBUG,-1,,,1   
    18      
    19  /STATUS,SOLU
    20  SOLVE   
    21      
    22      
    23  *DIM,ELEMENTS_NODES,ARRAY,ELEMSUM,4 
    24  *VGET,ELEMENTS_NODES(1,1),ELEM,1,NODE,1 
    25  *VGET,ELEMENTS_NODES(1,2),ELEM,1,NODE,2 
    26  *VGET,ELEMENTS_NODES(1,3),ELEM,1,NODE,3 
    27  *VGET,ELEMENTS_NODES(1,4),ELEM,1,NODE,4 
    28  *CFOPEN,elements_nodes,txt  
    29  *VWRITE,ELEMENTS_NODES(1,1), ELEMENTS_NODES(1,2),ELEMENTS_NODES(1,3),ELEMENTS_NODES(1,4)
    30  %10I    %10I    %10I    %10I
    31  *CFCLOS 
    32      
    33      
    34  *DIM,ELEMENTS_CENTERS,ARRAY,ELEMSUM,3   
    35  *VGET,ELEMENTS_CENTERS(1,1),ELEM,1,CENT,X   
    36  *VGET,ELEMENTS_CENTERS(1,2),ELEM,1,CENT,Y   
    37  *VGET,ELEMENTS_CENTERS(1,3),ELEM,1,CENT,Z   
    38  *CFOPEN,elements_centers,txt
    39  *VWRITE,SEQU,ELEMENTS_CENTERS(1,1), ELEMENTS_CENTERS(1,2),ELEMENTS_CENTERS(1,3) 
    40  %10I  %15.7E  %15.7E  %15.7E
    41  *CFCLOS 
    42      
    43  *DIM,NODES_COORDINATE,ARRAY,NODESUM,3   
    44  *VGET,NODES_COORDINATE(1,1),NODE,1,LOC,X
    45  *VGET,NODES_COORDINATE(1,2),NODE,1,LOC,Y
    46  *VGET,NODES_COORDINATE(1,3),NODE,1,LOC,Z
    47  *CFOPEN,node_coordinates,txt
    48  *VWRITE,NODES_COORDINATE(1,1),NODES_COORDINATE(1,2),NODES_COORDINATE(1,3)   
    49  %15.7E  %15.7E  %15.7E  
    50  *CFCLOS 
    51      
    52  *DIM,ELEMENTS_VOLUMN,ARRAY,ELEMSUM,1
    53  *VGET,ELEMENTS_VOLUMN(1,1),ELEM,1,GEOM  
    54  *CFOPEN,elements_volumn,txt 
    55  *VWRITE,SEQU,ELEMENTS_VOLUMN(1,1)   
    56  %10I    %15.7E  
    57  *CFCLOS 
    58      
    59  *CFOPEN,elements_nodes_counts,txt   
    60  *VWRITE,ELEMSUM,NODESUM 
    61  %10I    %10I
    62  *CFCLOS 
    63      
    64  !for 2D project 
    65  *DIM,connectedelem,ARRAY,100,ELEMSUM
    66  *DIM,neibors,ARRAY,ELEMSUM,100  
    67  *DO,i,1,ELEMSUM 
    68  ESEL,S, , ,i
    69  NSLE,S  
    70  ESLN,S  
    71  *VGET,connectedelem(1,i),ELEM,,ELIST
    72  *ENDDO  
    73  ALLSEL,ALL  
    74  *MFUN,neibors(1,1),TRAN,connectedelem(1,1)  
    75  *MWRITE,neibors(1,1),neibors,txt,,JIK,100,ELEMSUM,1 
    76  (100F10.0)  
    77  *CFCLOS 
    78      
    79  SAVE
    80  FINISH  
    81  exit

 RUN SETUP PROCEDURE FROM FILE= D:\Ansys\ANSYS Inc\v202\ANSYS\apdl\start.ans

 /INPUT FILE= D:\Ansys\ANSYS Inc\v202\ANSYS\apdl\start.ans  LINE=       0

 Current working directory switched to D:\CodeSave\GitCode\Topology-optimization-of-structure-via-simp-methodNEW\ANSYS\results                                                                                                                                                                 

 RESUME ANSYS DATA FROM FILE NAME=D:\CodeSave\GitCode\Topology-optimization-of-structure-via-simp-methodNEW\ANSYS\models\complex2D_grid.db                                                                                                                                                            

 *** ANSYS GLOBAL STATUS *** 

 TITLE =  File: H:\MATERTHESIS\ANSYS_SD\APDL_SCRIPT\ANSYS_GUI\VERSATILE_SIMP\2D
 ANALYSIS TYPE =  STATIC (STEADY-STATE)
 NUMBER OF ELEMENT TYPES =      1
      3005 ELEMENTS CURRENTLY SELECTED.  MAX ELEMENT NUMBER =        3005
      3198 NODES CURRENTLY SELECTED.     MAX NODE NUMBER =           3198
        15 KEYPOINTS CURRENTLY SELECTED. MAX KEYPOINT NUMBER =         15
        15 LINES CURRENTLY SELECTED.     MAX LINE NUMBER =             15
         1 AREAS CURRENTLY SELECTED.     MAX AREA NUMBER =              1
 MAXIMUM LINEAR PROPERTY NUMBER        =       1
 ACTIVE COORDINATE SYSTEM              =       0  (CARTESIAN)  
 MAXIMUM COUPLED D.O.F. SET NUMBER     =       2
 NUMBER OF SPECIFIED CONSTRAINTS       =     180
 NUMBER OF NODAL LOADS                 =      25
 CURRENT LOAD CASE =      0 OF      0
 LOAD SET   =       1
 SUBSTEP    =       1
 TIME/FREQ  =    1.0000    

 INITIAL JOBNAME = file
 CURRENT JOBNAME = file

 CURRENT JOBNAME REDEFINED AS top2d
     Opening new LOG, ERROR, LOCK and PAGE FILES

 TITLE= 
 top2d                                                                         


 *GET  ELEMSUM   FROM  ELEM  ITEM=COUN           VALUE=  3005.00000    

 *GET  NODESUM   FROM  NODE  ITEM=COUN       VALUE=  3198.00000     

 OPENED FILE= elements_nodes_counts.txt FOR COMMAND FILE DATA 


  COMMAND FILE CLOSED 


 *****  ANSYS SOLUTION ROUTINE  *****


 PERFORM A STATIC ANALYSIS
  THIS WILL BE A NEW ANALYSIS

 /OUTPUT FILE= elements_stiffness.out


 *---------------------------------------------------------------------------*
 |                                                                           |
 |                       DISTRIBUTED ANSYS RUN COMPLETED                     |
 |                                                                           |
 |---------------------------------------------------------------------------|
 |                                                                           |
 | Ansys 2020 R2               Build 20.2         UP20200601     WINDOWS x64 |
 |                                                                           |
 |---------------------------------------------------------------------------|
 |                                                                           |
 | Database Requested(-db)  1024 MB    Scratch Memory Requested      1024 MB |
 | Maximum Database Used      14 MB    Maximum Scratch Memory Used    130 MB |
 |                                                                           |
 |---------------------------------------------------------------------------|
 |                                                                           |
 |        CP Time      (sec) =          1.672       Time  =  20:44:14        |
 |        Elapsed Time (sec) =          4.000       Date  =  10/31/2023      |
 |                                                                           |
 *---------------------------------------------------------------------------*
