
 ANSYS Mechanical Enterprise                       


 *------------------------------------------------------------------*
 |                                                                  |
 |   W E L C O M E   T O   T H E   A N S Y S (R)  P R O G R A M     |
 |                                                                  |
 *------------------------------------------------------------------*




 ***************************************************************
 *            ANSYS 2020 R2          LEGAL NOTICES             *
 ***************************************************************
 *                                                             *
 * Copyright 1971-2020 ANSYS, Inc.  All rights reserved.       *
 * Unauthorized use, distribution or duplication is            *
 * prohibited.                                                 *
 *                                                             *
 * Ansys is a registered trademark of ANSYS, Inc. or its       *
 * subsidiaries in the United States or other countries.       *
 * See the ANSYS, Inc. online documentation or the ANSYS, Inc. *
 * documentation CD or online help for the complete Legal      *
 * Notice.                                                     *
 *                                                             *
 ***************************************************************
 *                                                             *
 * THIS ANSYS SOFTWARE PRODUCT AND PROGRAM DOCUMENTATION       *
 * INCLUDE TRADE SECRETS AND CONFIDENTIAL AND PROPRIETARY      *
 * PRODUCTS OF ANSYS, INC., ITS SUBSIDIARIES, OR LICENSORS.    *
 * The software products and documentation are furnished by    *
 * ANSYS, Inc. or its subsidiaries under a software license    *
 * agreement that contains provisions concerning               *
 * non-disclosure, copying, length and nature of use,          *
 * compliance with exporting laws, warranties, disclaimers,    *
 * limitations of liability, and remedies, and other           *
 * provisions.  The software products and documentation may be *
 * used, disclosed, transferred, or copied only in accordance  *
 * with the terms and conditions of that software license      *
 * agreement.                                                  *
 *                                                             *
 * ANSYS, Inc. is a UL registered                              *
 * ISO 9001:2015 company.                                      *
 *                                                             *
 ***************************************************************
 *                                                             *
 * This product is subject to U.S. laws governing export and   *
 * re-export.                                                  *
 *                                                             *
 * For U.S. Government users, except as specifically granted   *
 * by the ANSYS, Inc. software license agreement, the use,     *
 * duplication, or disclosure by the United States Government  *
 * is subject to restrictions stated in the ANSYS, Inc.        *
 * software license agreement and FAR 12.212 (for non-DOD      *
 * licenses).                                                  *
 *                                                             *
 ***************************************************************

 2020 R2 
     
 Point Releases and Patches installed:   
     
 ANSYS, Inc. Products 2020 R2
 SpaceClaim 2020 R2  
 Discovery 2020 R2   
 AIM 2020 R2 
 Live (includes SpaceClaim) 2020 R2  
 ANSYS Sherlock 2020 R2  
 Autodyn 2020 R2 
 LS-DYNA 2020 R2 
 ICEM CFD 2020 R2
 Aqwa 2020 R2
 SPEOS 2020 R2   
 Mechanical Products 2020 R2 
 Additive 2020 R2
 Icepak (includes CFD-Post) 2020 R2  
 ACIS Geometry Interface 2020 R2 
 AutoCAD Geometry Interface 2020 R2  
 Catia, Version 4 Geometry Interface 2020 R2 
 Catia, Version 5 Geometry Interface 2020 R2 
 Catia, Version 6 Geometry Interface 2020 R2 
 Creo Elements/Direct Modeling Geometry Interface 2020 R2
 Creo Parametric Geometry Interface 2020 R2  
 Inventor Geometry Interface 2020 R2 
 JTOpen Geometry Interface 2020 R2   
 NX Geometry Interface 2020 R2   
 Parasolid Geometry Interface  2020 R2   
 Solid Edge Geometry Interface 2020 R2   
 SOLIDWORKS Geometry Interface 2020 R2   
 ANSYS, Inc. License Manager 2020 R2 


          *****  ANSYS COMMAND LINE ARGUMENTS  *****
  BATCH MODE REQUESTED (-b)    = LIST
  INPUT FILE COPY MODE (-c)    = COPY
  INPUT FILE NAME              = D:\CodeSave\GitCode\Topology-optimization-of-structure-via-simp-methodNEW\ANSYS\results3D\top3d_minf.txt
  OUTPUT FILE NAME             = D:\CodeSave\GitCode\Topology-optimization-of-structure-via-simp-methodNEW\ANSYS\results3D\top3d_minf.out

 RELEASE= 2020 R2              BUILD= 20.2      UP20200601   VERSION=WINDOWS x64 
 CURRENT JOBNAME=file0  22:34:19  NOV 01, 2023 CP=      0.203

     1  /CWD,'D:\CodeSave\GitCode\Topology-optimization-of-structure-via-simp-methodNEW\ANSYS\results3D'
     2  RESUME,'Xuanbi3D','db','D:\CodeSave\GitCode\Topology-optimization-of-structure-via-simp-methodNEW\ANSYS\models3D',0,0   
     3  /FILENAME,top3d,1   
     4  /TITLE,top3d
     5      
     6  !optional for user defined command  
     7  ESEL,U,TYPE,,5,6
     8      
     9  *GET,ELEMSUM,ELEMENT,0,COUNT
    10  *GET,NODESUM,NODE,0,COUNT   
    11  *CFOPEN,elements_nodes_counts,txt   
    12  *VWRITE,ELEMSUM,NODESUM 
    13  %10I    %10I
    14  *CFCLOS 
    15      
    16  /SOL
    17  ANTYPE,0
    18      
    19  !/OUTPUT,elements_stiffness,out,,   
    20  !/DEBUG,-1,,,1  
    21      
    22  !/STATUS,SOLU   
    23  !SOLVE  
    24      
    25  *DIM,ELEMENTS_NODES,ARRAY,ELEMSUM,8 
    26  *VGET,ELEMENTS_NODES(1,1),ELEM,1,NODE,1 
    27  *VGET,ELEMENTS_NODES(1,2),ELEM,1,NODE,2 
    28  *VGET,ELEMENTS_NODES(1,3),ELEM,1,NODE,3 
    29  *VGET,ELEMENTS_NODES(1,4),ELEM,1,NODE,4 
    30  *VGET,ELEMENTS_NODES(1,5),ELEM,1,NODE,5 
    31  *VGET,ELEMENTS_NODES(1,6),ELEM,1,NODE,6 
    32  *VGET,ELEMENTS_NODES(1,7),ELEM,1,NODE,7 
    33  *VGET,ELEMENTS_NODES(1,8),ELEM,1,NODE,8 
    34  *CFOPEN,elements_nodes,txt  
    35  *VWRITE,ELEMENTS_NODES(1,1), ELEMENTS_NODES(1,2),ELEMENTS_NODES(1,3),ELEMENTS_NODES(1,4),ELEMENTS_NODES(1,5),ELEMENTS_NODES(1,6),ELEMENTS_NODES(1,7),ELEMENTS_NODES(1,8)
    36  %10I    %10I    %10I    %10I    %10I    %10I    %10I    %10I
    37  *CFCLOS 
    38      
    39  *DIM,ELEMENTS_CENTERS,ARRAY,ELEMSUM,3   
    40  *VGET,ELEMENTS_CENTERS(1,1),ELEM,1,CENT,X   
    41  *VGET,ELEMENTS_CENTERS(1,2),ELEM,1,CENT,Y   
    42  *VGET,ELEMENTS_CENTERS(1,3),ELEM,1,CENT,Z   
    43  *CFOPEN,elements_centers,txt
    44  *VWRITE,SEQU,ELEMENTS_CENTERS(1,1), ELEMENTS_CENTERS(1,2),ELEMENTS_CENTERS(1,3) 
    45  %10I  %15.7E  %15.7E  %15.7E
    46  *CFCLOS 
    47      
    48  *DIM,NODES_COORDINATE,ARRAY,NODESUM,3   
    49  *VGET,NODES_COORDINATE(1,1),NODE,1,LOC,X
    50  *VGET,NODES_COORDINATE(1,2),NODE,1,LOC,Y
    51  *VGET,NODES_COORDINATE(1,3),NODE,1,LOC,Z
    52  *CFOPEN,node_coordinates,txt
    53  *VWRITE,NODES_COORDINATE(1,1),NODES_COORDINATE(1,2),NODES_COORDINATE(1,3)   
    54  %15.7E  %15.7E  %15.7E  
    55  *CFCLOS 
    56      
    57  *DIM,ELEMENTS_VOLUMN,ARRAY,ELEMSUM,1
    58  *VGET,ELEMENTS_VOLUMN(1,1),ELEM,1,GEOM  
    59  *CFOPEN,elements_volumn,txt 
    60  *VWRITE,SEQU,ELEMENTS_VOLUMN(1,1)   
    61  %10I    %15.7E  
    62  *CFCLOS 
    63      
    64      
    65  !for 3D project 
    66  *DIM,connectedelem,ARRAY,100,ELEMSUM
    67  *DIM,neibors,ARRAY,ELEMSUM,100  
    68  *DO,i,1,ELEMSUM 
    69  ESEL,S, , ,i
    70  NSLE,S  
    71  ESLN,S  
    72  *VGET,connectedelem(1,i),ELEM,,ELIST
    73  *ENDDO  
    74      
    75  ALLSEL,ALL  
    76  *MFUN,neibors(1,1),TRAN,connectedelem(1,1)  
    77  *MWRITE,neibors(1,1),neibors,txt,,JIK,100,ELEMSUM,1 
    78  (100F10.0)  
    79  *CFCLOS 
    80      
    81  SAVE
    82  FINISH  
    83  exit

 RUN SETUP PROCEDURE FROM FILE= D:\Ansys\ANSYS Inc\v202\ANSYS\apdl\start.ans

 /INPUT FILE= D:\Ansys\ANSYS Inc\v202\ANSYS\apdl\start.ans  LINE=       0

 Current working directory switched to D:\CodeSave\GitCode\Topology-optimization-of-structure-via-simp-methodNEW\ANSYS\results3D                                                                                                                                                               

 RESUME ANSYS DATA FROM FILE NAME=D:\CodeSave\GitCode\Topology-optimization-of-structure-via-simp-methodNEW\ANSYS\models3D\Xuanbi3D.db                                                                                                                                                                

 *** ANSYS GLOBAL STATUS *** 

 TITLE = unsaved_project--Static Structural (A5)                               
 ANALYSIS TYPE =  STATIC (STEADY-STATE)
 NUMBER OF ELEMENT TYPES =      2
      1448 ELEMENTS CURRENTLY SELECTED.  MAX ELEMENT NUMBER =        2240
      1872 NODES CURRENTLY SELECTED.     MAX NODE NUMBER =           1872
         1 COMPONENTS CURRENTLY DEFINED
 MAXIMUM LINEAR PROPERTY NUMBER        =       1
 ACTIVE COORDINATE SYSTEM              =       0  (CARTESIAN)  
 NUMBER OF SPECIFIED CONSTRAINTS       =     351
 NUMBER OF SPECIFIED SURFACE LOADS     =      24

 INITIAL JOBNAME = file
 CURRENT JOBNAME = file

 CURRENT JOBNAME REDEFINED AS top3d
     Opening new LOG, ERROR, LOCK and PAGE FILES

 TITLE= 
 top3d                                                                         


 *** WARNING ***                         CP =       0.250   TIME= 22:34:20
 Specified range of 5 to 6 exceeds the allowed maximum of 2.  The ESEL   
 command is ignored.                                                     

 *GET  ELEMSUM   FROM  ELEM  ITEM=COUN           VALUE=  1448.00000    

 *GET  NODESUM   FROM  NODE  ITEM=COUN       VALUE=  1872.00000     

 OPENED FILE= elements_nodes_counts.txt FOR COMMAND FILE DATA 


  COMMAND FILE CLOSED 


 *****  ANSYS SOLUTION ROUTINE  *****


 PERFORM A STATIC ANALYSIS
  THIS WILL BE A NEW ANALYSIS

 SET PARAMETER DIMENSIONS ON  ELEMENTS_NODES
  TYPE=ARRA  DIMENSIONS=     1448        8        1

 VECTOR GET OPERATION  ELEMENTS_NODES(1,1)  VECTOR LENGTH=    1448
 NAME= ELEM         1  NODE  1   

 *** WARNING ***                         CP =       0.250   TIME= 22:34:20
 Some entities requested in the *VGET were undefined.                    

 VECTOR GET OPERATION  ELEMENTS_NODES(1,2)  VECTOR LENGTH=    1448
 NAME= ELEM         1  NODE  2   

 *** WARNING ***                         CP =       0.250   TIME= 22:34:20
 Some entities requested in the *VGET were undefined.                    

 VECTOR GET OPERATION  ELEMENTS_NODES(1,3)  VECTOR LENGTH=    1448
 NAME= ELEM         1  NODE  3   

 *** WARNING ***                         CP =       0.250   TIME= 22:34:20
 Some entities requested in the *VGET were undefined.                    

 VECTOR GET OPERATION  ELEMENTS_NODES(1,4)  VECTOR LENGTH=    1448
 NAME= ELEM         1  NODE  4   

 *** WARNING ***                         CP =       0.250   TIME= 22:34:20
 Some entities requested in the *VGET were undefined.                    

 VECTOR GET OPERATION  ELEMENTS_NODES(1,5)  VECTOR LENGTH=    1448
 NAME= ELEM         1  NODE  5   

 *** WARNING ***                         CP =       0.250   TIME= 22:34:20
 Some entities requested in the *VGET were undefined.                    

 VECTOR GET OPERATION  ELEMENTS_NODES(1,6)  VECTOR LENGTH=    1448
 NAME= ELEM         1  NODE  6   

 *** WARNING ***                         CP =       0.250   TIME= 22:34:20
 Some entities requested in the *VGET were undefined.                    

 VECTOR GET OPERATION  ELEMENTS_NODES(1,7)  VECTOR LENGTH=    1448
 NAME= ELEM         1  NODE  7   

 *** WARNING ***                         CP =       0.250   TIME= 22:34:20
 Some entities requested in the *VGET were undefined.                    

 VECTOR GET OPERATION  ELEMENTS_NODES(1,8)  VECTOR LENGTH=    1448
 NAME= ELEM         1  NODE  8   

 *** WARNING ***                         CP =       0.250   TIME= 22:34:20
 Some entities requested in the *VGET were undefined.                    

 OPENED FILE= elements_nodes.txt FOR COMMAND FILE DATA 


  COMMAND FILE CLOSED 


 SET PARAMETER DIMENSIONS ON  ELEMENTS_CENTERS
  TYPE=ARRA  DIMENSIONS=     1448        3        1

 VECTOR GET OPERATION  ELEMENTS_CENTERS(1,1)  VECTOR LENGTH=    1448
 NAME= ELEM         1  CENT  X   

 *** WARNING ***                         CP =       0.266   TIME= 22:34:20
 Some entities requested in the *VGET were undefined.                    

 VECTOR GET OPERATION  ELEMENTS_CENTERS(1,2)  VECTOR LENGTH=    1448
 NAME= ELEM         1  CENT  Y   

 *** WARNING ***                         CP =       0.266   TIME= 22:34:20
 Some entities requested in the *VGET were undefined.                    

 VECTOR GET OPERATION  ELEMENTS_CENTERS(1,3)  VECTOR LENGTH=    1448
 NAME= ELEM         1  CENT  Z   

 *** WARNING ***                         CP =       0.266   TIME= 22:34:20
 Some entities requested in the *VGET were undefined.                    

 OPENED FILE= elements_centers.txt FOR COMMAND FILE DATA 


  COMMAND FILE CLOSED 


 SET PARAMETER DIMENSIONS ON  NODES_COORDINATE
  TYPE=ARRA  DIMENSIONS=     1872        3        1

 VECTOR GET OPERATION  NODES_COORDINATE(1,1)  VECTOR LENGTH=    1872
 NAME= NODE         1  LOC   X   

 VECTOR GET OPERATION  NODES_COORDINATE(1,2)  VECTOR LENGTH=    1872
 NAME= NODE         1  LOC   Y   

 VECTOR GET OPERATION  NODES_COORDINATE(1,3)  VECTOR LENGTH=    1872
 NAME= NODE         1  LOC   Z   

 OPENED FILE= node_coordinates.txt FOR COMMAND FILE DATA 


  COMMAND FILE CLOSED 


 SET PARAMETER DIMENSIONS ON  ELEMENTS_VOLUMN
  TYPE=ARRA  DIMENSIONS=     1448        1        1

 VECTOR GET OPERATION  ELEMENTS_VOLUMN(1,1)  VECTOR LENGTH=    1448
 NAME= ELEM         1  GEOM      

 *** WARNING ***                         CP =       0.266   TIME= 22:34:20
 Some entities requested in the *VGET were undefined.                    

 OPENED FILE= elements_volumn.txt FOR COMMAND FILE DATA 


  COMMAND FILE CLOSED 


 SET PARAMETER DIMENSIONS ON  CONNECTEDELEM
  TYPE=ARRA  DIMENSIONS=      100     1448        1

 SET PARAMETER DIMENSIONS ON  NEIBORS TYPE=ARRA  DIMENSIONS=  1448   100     1

 *DO LOOP ON PARAMETER= I FROM  1.0000     TO  1448.0     BY  1.0000    

 SELECT       FOR ITEM=ELEM COMPONENT=    
  IN RANGE         1 TO          1 STEP          1

          1  ELEMENTS (OF       1448  DEFINED) SELECTED BY  ESEL  COMMAND.

 SELECT      ALL NODES HAVING ANY ELEMENT IN ELEMENT SET.

          8 NODES (OF       1872  DEFINED) SELECTED FROM
        1 SELECTED ELEMENTS BY NSLE COMMAND.

 SELECT      ALL ELEMENTS HAVING ANY NODE IN NODAL SET.

         10 ELEMENTS (OF       1448  DEFINED) SELECTED FROM
        8 SELECTED NODES BY  ESLN COMMAND.

 VECTOR GET OPERATION  connectedelem(1,i)  VECTOR LENGTH=     100
 NAME= ELEM         0  ELIS      

 *ENDDO  INDEX= I                               

 SELECT ALL ENTITIES OF TYPE= ALL  AND BELOW

 MATRIX TRANSPOSE FUNCTION  RESULT MATRIX= neibors(1,1)    
  INPUT MATRIX= connectedelem(1,
  INPUT MATRIX SIZE=       100 ROWS  BY       1448 COLUMNS
 RESULT MATRIX SIZE=      1448 ROWS  BY        100 COLUMNS

 MATRIX WRITE OPERATION  *MWRITE 
  neibors(1,1) WRITE TO FILE neibors.txt
 LOOP DIRECTIONS=JIK   COUNTS=     100    1448       1       1       1
 FORMAT=(100F10.0)                                                            

  COMMAND FILE CLOSED 


 ALL CURRENT ANSYS DATA WRITTEN TO FILE NAME= top3d.db
  FOR POSSIBLE RESUME FROM THIS POINT

 FINISH SOLUTION PROCESSING


 ***** ROUTINE COMPLETED *****  CP =         0.609



 PURGE ALL SOLUTION AND POST DATA
 SAVE ALL MODEL DATA

 ALL CURRENT ANSYS DATA WRITTEN TO FILE NAME= top3d.db
  FOR POSSIBLE RESUME FROM THIS POINT


 NUMBER OF WARNING MESSAGES ENCOUNTERED=         13
 NUMBER OF ERROR   MESSAGES ENCOUNTERED=          0

+--------- D I S T R I B U T E D   A N S Y S   S T A T I S T I C S ------------+

Release: 2020 R2            Build: 20.2       Update: UP20200601   Platform: WINDOWS x64 
Date Run: 11/01/2023   Time: 22:34     Process ID: 13352
Operating System: Windows 10  (Build: 22621)

Processor Model: AMD Ryzen 7 7735H with Radeon Graphics

Compiler: Intel(R) FORTRAN Compiler Version 19.0.0  (Build: 20190206)
          Intel(R) C/C++ Compiler Version 19.0.0  (Build: 20190206)
          Intel(R) Math Kernel Library Version 2020.0.0 Product Build 20191125

Number of machines requested            :    1
Total number of cores available         :   16
Number of physical cores available      :    8
Number of processes requested           :    2
Number of threads per process requested :    1
Total number of cores requested         :    2 (Distributed Memory Parallel)               
MPI Type: INTELMPI
MPI Version: Intel(R) MPI Library 2018 Update 3 for Windows* OS


GPU Acceleration: Not Requested

Job Name: top3d0
Input File: top3d_minf.txt

  Core                Machine Name   Working Directory
 -----------------------------------------------------
     0                   sivertong   D:\CodeSave\GitCode\Topology-optimization-of-structure-via-simp-methodNEW\ANSYS\results3D
     1                   sivertong   D:\CodeSave\GitCode\Topology-optimization-of-structure-via-simp-methodNEW\ANSYS\results3D
 
Latency time from master to core     1 =    0.843 microseconds
 
Communication speed from master to core     1 = 10683.48 MB/sec

Total CPU time for main thread                    :        0.5 seconds
Total CPU time summed for all threads             :        0.6 seconds

Elapsed time spent obtaining a license            :        0.9 seconds
Elapsed time spent pre-processing model (/PREP7)  :        0.0 seconds
Elapsed time spent solution - preprocessing       :        0.0 seconds
Elapsed time spent computing solution             :        0.0 seconds
Elapsed time spent solution - postprocessing      :        0.0 seconds
Elapsed time spent post-processing model (/POST1) :        0.0 seconds
 

Maximum total memory used                         :       14.0 MB
Maximum total memory allocated                    :     3136.0 MB
Total physical memory available                   :         15 GB

Total amount of I/O written to disk               :        0.0 GB
Total amount of I/O read from disk                :        0.0 GB

+------ E N D   D I S T R I B U T E D   A N S Y S   S T A T I S T I C S -------+


 *---------------------------------------------------------------------------*
 |                                                                           |
 |                       DISTRIBUTED ANSYS RUN COMPLETED                     |
 |                                                                           |
 |---------------------------------------------------------------------------|
 |                                                                           |
 | Ansys 2020 R2               Build 20.2         UP20200601     WINDOWS x64 |
 |                                                                           |
 |---------------------------------------------------------------------------|
 |                                                                           |
 | Database Requested(-db)  1024 MB    Scratch Memory Requested      1024 MB |
 | Maximum Database Used       4 MB    Maximum Scratch Memory Used      5 MB |
 |                                                                           |
 |---------------------------------------------------------------------------|
 |                                                                           |
 |        CP Time      (sec) =          0.609       Time  =  22:34:20        |
 |        Elapsed Time (sec) =          3.000       Date  =  11/01/2023      |
 |                                                                           |
 *---------------------------------------------------------------------------*
