
 ANSYS Mechanical Enterprise                       


 *------------------------------------------------------------------*
 |                                                                  |
 |   W E L C O M E   T O   T H E   A N S Y S (R)  P R O G R A M     |
 |                                                                  |
 *------------------------------------------------------------------*




 ***************************************************************
 *            ANSYS 2020 R2          LEGAL NOTICES             *
 ***************************************************************
 *                                                             *
 * Copyright 1971-2020 ANSYS, Inc.  All rights reserved.       *
 * Unauthorized use, distribution or duplication is            *
 * prohibited.                                                 *
 *                                                             *
 * Ansys is a registered trademark of ANSYS, Inc. or its       *
 * subsidiaries in the United States or other countries.       *
 * See the ANSYS, Inc. online documentation or the ANSYS, Inc. *
 * documentation CD or online help for the complete Legal      *
 * Notice.                                                     *
 *                                                             *
 ***************************************************************
 *                                                             *
 * THIS ANSYS SOFTWARE PRODUCT AND PROGRAM DOCUMENTATION       *
 * INCLUDE TRADE SECRETS AND CONFIDENTIAL AND PROPRIETARY      *
 * PRODUCTS OF ANSYS, INC., ITS SUBSIDIARIES, OR LICENSORS.    *
 * The software products and documentation are furnished by    *
 * ANSYS, Inc. or its subsidiaries under a software license    *
 * agreement that contains provisions concerning               *
 * non-disclosure, copying, length and nature of use,          *
 * compliance with exporting laws, warranties, disclaimers,    *
 * limitations of liability, and remedies, and other           *
 * provisions.  The software products and documentation may be *
 * used, disclosed, transferred, or copied only in accordance  *
 * with the terms and conditions of that software license      *
 * agreement.                                                  *
 *                                                             *
 * ANSYS, Inc. is a UL registered                              *
 * ISO 9001:2015 company.                                      *
 *                                                             *
 ***************************************************************
 *                                                             *
 * This product is subject to U.S. laws governing export and   *
 * re-export.                                                  *
 *                                                             *
 * For U.S. Government users, except as specifically granted   *
 * by the ANSYS, Inc. software license agreement, the use,     *
 * duplication, or disclosure by the United States Government  *
 * is subject to restrictions stated in the ANSYS, Inc.        *
 * software license agreement and FAR 12.212 (for non-DOD      *
 * licenses).                                                  *
 *                                                             *
 ***************************************************************

 2020 R2 
     
 Point Releases and Patches installed:   
     
 ANSYS, Inc. Products 2020 R2
 SpaceClaim 2020 R2  
 Discovery 2020 R2   
 AIM 2020 R2 
 Live (includes SpaceClaim) 2020 R2  
 ANSYS Sherlock 2020 R2  
 Autodyn 2020 R2 
 LS-DYNA 2020 R2 
 ICEM CFD 2020 R2
 Aqwa 2020 R2
 SPEOS 2020 R2   
 Mechanical Products 2020 R2 
 Additive 2020 R2
 Icepak (includes CFD-Post) 2020 R2  
 ACIS Geometry Interface 2020 R2 
 AutoCAD Geometry Interface 2020 R2  
 Catia, Version 4 Geometry Interface 2020 R2 
 Catia, Version 5 Geometry Interface 2020 R2 
 Catia, Version 6 Geometry Interface 2020 R2 
 Creo Elements/Direct Modeling Geometry Interface 2020 R2
 Creo Parametric Geometry Interface 2020 R2  
 Inventor Geometry Interface 2020 R2 
 JTOpen Geometry Interface 2020 R2   
 NX Geometry Interface 2020 R2   
 Parasolid Geometry Interface  2020 R2   
 Solid Edge Geometry Interface 2020 R2   
 SOLIDWORKS Geometry Interface 2020 R2   
 ANSYS, Inc. License Manager 2020 R2 


          *****  ANSYS COMMAND LINE ARGUMENTS  *****
  INITIAL JOBNAME              = file                                                                                                                                                                                                                                                    
  BATCH MODE REQUESTED (-b)    = LIST
  INPUT FILE COPY MODE (-c)    = COPY
  SHARED MEMORY PARALLEL REQUESTED
  INPUT FILE NAME              = D:\CodeSave\GitCode\Topology-optimization-of-structure-via-simp-methodNEW\ANSYS\results3D\top3d_rinf.txt
  OUTPUT FILE NAME             = D:\CodeSave\GitCode\Topology-optimization-of-structure-via-simp-methodNEW\ANSYS\results3D\top3d_rinf.out
  LANGUAGE                     = en-us               
  INITIAL DIRECTORY = D:\CodeSave\GitCode\Topology-optimization-of-structure-via-simp-methodNEW\ANSYS\results3D

 PARAMETER STATUS-           (   1 PARAMETERS DEFINED)

 NAME                              VALUE                        TYPE
 S READ                                                          CHARACTER

 RELEASE= 2020 R2              BUILD= 20.2      UP20200601   VERSION=WINDOWS x64 
 CURRENT JOBNAME=file  22:46:17  NOV 01, 2023 CP=      0.172

     1  /CWD,'D:\CodeSave\GitCode\Topology-optimization-of-structure-via-simp-methodNEW\ANSYS\results3D'
     2  RESUME,'Xuanbi3D','db','D:\CodeSave\GitCode\Topology-optimization-of-structure-via-simp-methodNEW\ANSYS\models3D',0,0   
     3  /FILENAME,top3d,1   
     4  /TITLE,top3d
     5  ALLSEL,ALL  
     6   ! optional for your project
     7  ESEL,U,TYPE,,5,6
     8      
     9  *GET,ELEMSUM,ELEMENT,0,COUNT
    10  *GET,NODESUM,NODE,0,COUNT   
    11      
    12      
    13  *DIM,MATERIAL,ARRAY,ELEMSUM,2   
    14  *VREAD,MATERIAL(1,1),material,txt,,JIK,2,ELEMSUM
    15  (E14.7,E15.7)   
    16      
    17  /PREP7  
    18  *DO,i,1,ELEMSUM 
    19  MP,EX,i,MATERIAL(i,2)   
    20  MP,PRXY,i,MATERIAL(i,1) 
    21  *ENDDO  
    22      
    23  *DO,i,1,ELEMSUM 
    24  FLST,2,1,2,ORDE,1   
    25  FITEM,2,i   
    26  EMODIF,P51X,MAT,i,  
    27  *ENDDO  
    28      
    29  ALLSEL,ALL  
    30      
    31  /SOL
    32  ANTYPE,0
    33  EQSLV,PCG,1E-4  
    34  /STATUS,SOLU
    35  SOLVE   
    36      
    37  ESEL,U,TYPE,,5,6
    38      
    39  /POST1  
    40  ETABLE,strain_e,SENE,   
    41  *VGET,strain_e,ELEM,1,ETAB,STRAIN_E, , ,2   
    42  *CFOPEN,strain_energy,txt   
    43  *VWRITE,strain_e(1,1)   
    44  (E15.7) 
    45  *CFCLOS 
    46      
    47  *DIM,NODAL_SOLUTION_U,ARRAY,NODESUM,3   
    48  *VGET,NODAL_SOLUTION_U(1,1),NODE,1,U,X  
    49  *VGET,NODAL_SOLUTION_U(1,2),NODE,1,U,Y  
    50  *VGET,NODAL_SOLUTION_U(1,3),NODE,1,U,Z  
    51  *CFOPEN,nodal_solution_u,txt
    52  *VWRITE,NODAL_SOLUTION_U(1,1), NODAL_SOLUTION_U(1,2),NODAL_SOLUTION_U(1,3)  
    53  (E15.7,'    ',E15.7,'    ',E15.7)   
    54  *CFCLOS 
    55      
    56      
    57  *DIM,NODAL_SOLUTION_STRESS,ARRAY,NODESUM,1  
    58  *VGET,NODAL_SOLUTION_STRESS(1,1),NODE,1,S,EQV   
    59  *CFOPEN,nodal_solution_stress,txt   
    60  *VWRITE,SEQU,NODAL_SOLUTION_STRESS(1,1) 
    61  %10I    %15.7E  
    62  *CFCLOS 
    63      
    64  *DIM,NODAL_SOLUTION_STRAIN,ARRAY,NODESUM,1  
    65  *VGET,NODAL_SOLUTION_STRAIN(1,1),NODE,1,EPTO,INT
    66  *CFOPEN,nodal_solution_strain,txt   
    67  *VWRITE,SEQU,NODAL_SOLUTION_STRAIN(1,1) 
    68  %10I    %15.7E  
    69  *CFCLOS 
    70      
    71  ALLSEL,ALL  
    72      
    73  SAVE
    74  FINISH  
    75  exit

 RUN SETUP PROCEDURE FROM FILE= D:\Ansys\ANSYS Inc\v202\ANSYS\apdl\start.ans

 /INPUT FILE= D:\Ansys\ANSYS Inc\v202\ANSYS\apdl\start.ans  LINE=       0

 Current working directory switched to D:\CodeSave\GitCode\Topology-optimization-of-structure-via-simp-methodNEW\ANSYS\results3D                                                                                                                                                               

 RESUME ANSYS DATA FROM FILE NAME=D:\CodeSave\GitCode\Topology-optimization-of-structure-via-simp-methodNEW\ANSYS\models3D\Xuanbi3D.db                                                                                                                                                                

 *** ANSYS GLOBAL STATUS *** 

 TITLE = unsaved_project--Static Structural (A5)                               
 ANALYSIS TYPE =  STATIC (STEADY-STATE)
 NUMBER OF ELEMENT TYPES =      2
      1448 ELEMENTS CURRENTLY SELECTED.  MAX ELEMENT NUMBER =        2240
      1872 NODES CURRENTLY SELECTED.     MAX NODE NUMBER =           1872
         1 COMPONENTS CURRENTLY DEFINED
 MAXIMUM LINEAR PROPERTY NUMBER        =       1
 ACTIVE COORDINATE SYSTEM              =       0  (CARTESIAN)  
 NUMBER OF SPECIFIED CONSTRAINTS       =     351
 NUMBER OF SPECIFIED SURFACE LOADS     =      24

 INITIAL JOBNAME = file
 CURRENT JOBNAME = file

 CURRENT JOBNAME REDEFINED AS top3d
     Opening new LOG, ERROR, LOCK and PAGE FILES

 TITLE= 
 top3d                                                                         


 SELECT ALL ENTITIES OF TYPE= ALL  AND BELOW

 *** WARNING ***                         CP =       0.203   TIME= 22:46:19
 Specified range of 5 to 6 exceeds the allowed maximum of 2.  The ESEL   
 command is ignored.                                                     

 *GET  ELEMSUM   FROM  ELEM  ITEM=COUN           VALUE=  1448.00000    

 *GET  NODESUM   FROM  NODE  ITEM=COUN       VALUE=  1872.00000     

 SET PARAMETER DIMENSIONS ON  MATERIAL TYPE=ARRA  DIMENSIONS=  1448     2     1

 VECTOR READ OPERATION  *VREAD  
  MATERIAL READ FROM FILE material.txt
 VECTOR LENGTH=      2
 NUMBER OF COLUMNS=   1448
 LOOP DIRECTIONS=JIK   COUNTS=       2    1448       1
 FORMAT=(E14.7,E15.7)                                                         

 *** WARNING ***                         CP =       0.203   TIME= 22:46:19
 *VREAD end-of-file in data read.                                        

 *** ANSYS - ENGINEERING ANALYSIS SYSTEM  RELEASE 2020 R2          20.2     ***
 ANSYS Mechanical Enterprise                       
 20120530  VERSION=WINDOWS x64   22:46:19  NOV 01, 2023 CP=      0.203

 top3d                                                                         



          ***** ANSYS ANALYSIS DEFINITION (PREP7) *****

 *DO LOOP ON PARAMETER= I FROM  1.0000     TO  1448.0     BY  1.0000    

 MATERIAL          1     EX   =   1.000000      

 MATERIAL          1     PRXY =  0.3000000      

 *** WARNING ***                         CP =       0.203   TIME= 22:46:19
 Poisson's ratio NU set for material 1 deleted.                          

 *ENDDO  INDEX= I                               

 *DO LOOP ON PARAMETER= I FROM  1.0000     TO  1448.0     BY  1.0000    

 MODIFY ELEMENT         1 (IF SELECTED) TO HAVE  MAT  =      1

 *ENDDO  INDEX= I                               

 SELECT ALL ENTITIES OF TYPE= ALL  AND BELOW


 ***** ROUTINE COMPLETED *****  CP =         0.250



 *****  ANSYS SOLUTION ROUTINE  *****


 PERFORM A STATIC ANALYSIS
  THIS WILL BE A NEW ANALYSIS

 USE PRECONDITIONED CONJUGATE GRADIENT SOLVER
  CONVERGENCE TOLERANCE = 1.00000E-04
  MAXIMUM ITERATION     = NumNode*DofPerNode*  1.0000    

                       S O L U T I O N   O P T I O N S

   PROBLEM DIMENSIONALITY. . . . . . . . . . . . .3-D                  
   DEGREES OF FREEDOM. . . . . . UX   UY   UZ  
   ANALYSIS TYPE . . . . . . . . . . . . . . . . .STATIC (STEADY-STATE)
   OFFSET TEMPERATURE FROM ABSOLUTE ZERO . . . . .  273.15    
   EQUATION SOLVER OPTION. . . . . . . . . . . . .PCG                
      TOLERANCE. . . . . . . . . . . . . . . . . . 1.00000E-04
   GLOBALLY ASSEMBLED MATRIX . . . . . . . . . . .SYMMETRIC  

                      L O A D   S T E P   O P T I O N S

   LOAD STEP NUMBER. . . . . . . . . . . . . . . .     1
   TIME AT END OF THE LOAD STEP. . . . . . . . . .  1.0000    
   NUMBER OF SUBSTEPS. . . . . . . . . . . . . . .     1
   STEP CHANGE BOUNDARY CONDITIONS . . . . . . . .DEFAULT
   PRINT OUTPUT CONTROLS . . . . . . . . . . . . .NO PRINTOUT
   DATABASE OUTPUT CONTROLS
      ITEM     FREQUENCY   COMPONENT
       ALL       NONE               
      NSOL        ALL               
      RSOL        ALL               
      EANG        ALL               
      ETMP        ALL               
      VENG        ALL               
      STRS        ALL               
      EPEL        ALL               
      EPPL        ALL               
      CONT        ALL               


 *****  ANSYS SOLVE    COMMAND  *****

 *** WARNING ***                         CP =       0.250   TIME= 22:46:19
 Element shape checking is currently inactive.  Issue SHPP,ON or         
 SHPP,WARN to reactivate, if desired.                                    

 *** NOTE ***                            CP =       0.250   TIME= 22:46:19
 The model data was checked and warning messages were found.             
  Please review output or errors file (                                  
 D:\CodeSave\GitCode\Topology-optimization-of-structure-via-simp-methodN 
 NEW\ANSYS\results3D\top3d.err ) for these warning messages.             

 *** SELECTION OF ELEMENT TECHNOLOGIES FOR APPLICABLE ELEMENTS ***
      --- GIVE SUGGESTIONS AND RESET THE KEY OPTIONS ---

 ELEMENT TYPE    1 IS SOLID185. IT IS ASSOCIATED WITH LINEAR MATERIALS ONLY
 AND POISSON'S RATIO IS NOT GREATER THAN 0.49. KEYOPT(2)=3 IS SUGGESTED AND
 HAS BEEN RESET.
  KEYOPT(1-12)=    0    3    0    0    0    0    0    0    0    0    0    0



 *** ANSYS - ENGINEERING ANALYSIS SYSTEM  RELEASE 2020 R2          20.2     ***
 ANSYS Mechanical Enterprise                       
 20120530  VERSION=WINDOWS x64   22:46:19  NOV 01, 2023 CP=      0.250

 top3d                                                                         



                       S O L U T I O N   O P T I O N S

   PROBLEM DIMENSIONALITY. . . . . . . . . . . . .3-D                  
   DEGREES OF FREEDOM. . . . . . UX   UY   UZ  
   ANALYSIS TYPE . . . . . . . . . . . . . . . . .STATIC (STEADY-STATE)
   OFFSET TEMPERATURE FROM ABSOLUTE ZERO . . . . .  273.15    
   EQUATION SOLVER OPTION. . . . . . . . . . . . .PCG                
      TOLERANCE. . . . . . . . . . . . . . . . . . 1.00000E-04
   GLOBALLY ASSEMBLED MATRIX . . . . . . . . . . .SYMMETRIC  

                      L O A D   S T E P   O P T I O N S

   LOAD STEP NUMBER. . . . . . . . . . . . . . . .     1
   TIME AT END OF THE LOAD STEP. . . . . . . . . .  1.0000    
   NUMBER OF SUBSTEPS. . . . . . . . . . . . . . .     1
   STEP CHANGE BOUNDARY CONDITIONS . . . . . . . .    NO
   PRINT OUTPUT CONTROLS . . . . . . . . . . . . .NO PRINTOUT
   DATABASE OUTPUT CONTROLS
      ITEM     FREQUENCY   COMPONENT
       ALL       NONE               
      NSOL        ALL               
      RSOL        ALL               
      EANG        ALL               
      ETMP        ALL               
      VENG        ALL               
      STRS        ALL               
      EPEL        ALL               
      EPPL        ALL               
      CONT        ALL               


 SOLUTION MONITORING INFO IS WRITTEN TO FILE= top3d.mntr                                                                                                                                                                                                                                                          


 *** NOTE ***                            CP =       0.312   TIME= 22:46:19
 The PCG solver has automatically set the level of difficulty for this   
 model to 1.                                                             


                         ***********  PRECISE MASS SUMMARY  ***********

   TOTAL RIGID BODY MASS MATRIX ABOUT ORIGIN
               Translational mass               |   Coupled translational/rotational mass
         16354.        0.0000        0.0000     |     0.0000        10221.       -10221.    
         0.0000        16354.        0.0000     |    -10221.        0.0000       0.31618E+06
         0.0000        0.0000        16354.     |     10221.      -0.31618E+06    0.0000    
     ------------------------------------------ | ------------------------------------------
                                                |         Rotational mass (inertia)
                                                |     17036.      -0.19761E+06  -0.19761E+06
                                                |   -0.19761E+06   0.61238E+07   -6388.3    
                                                |   -0.19761E+06   -6388.3       0.61238E+07

   TOTAL MASS =  16354.    
     The mass principal axes coincide with the global Cartesian axes

   CENTER OF MASS (X,Y,Z)=    19.333       0.62500       0.62500    

   TOTAL INERTIA ABOUT CENTER OF MASS
         4258.9       0.29104E-10    0.0000    
        0.29104E-10    4552.3      -0.90949E-12
         0.0000      -0.90949E-12    4552.3    
     The inertia principal axes coincide with the global Cartesian axes


  *** MASS SUMMARY BY ELEMENT TYPE ***

  TYPE      MASS
     1   16354.2    

 Range of element maximum matrix coefficients in global coordinates
 Maximum = 0.272680337 at element 113.                                   
 Minimum = 2.726803357E-10 at element 76.                                

 *** WARNING ***                         CP =       0.344   TIME= 22:46:19
 Coefficient ratio exceeds 1.0e8 - Check results.                        

   *** ELEMENT MATRIX FORMULATION TIMES
     TYPE    NUMBER   ENAME      TOTAL CP  AVE CP

        1      1440  SOLID185      0.062   0.000043
        2         8  SURF156       0.000   0.000000
 Time at end of element matrix formulation CP = 0.34375.                 
 curEqn=    530  totEqn=    530 Job CP sec=      0.391
      Factor Done= 100% Factor Wall sec=      0.003 rate=    1394.9 Mflops
 Iteration=     5 Ratio=  0.225025     Limit=  1.000000E-04 Wall=     0.0
 Iteration=    10 Ratio=  2.929914E-02 Limit=  1.000000E-04 Wall=     0.0
 Iteration=    15 Ratio=  1.056111E-02 Limit=  1.000000E-04 Wall=     0.0

 PRECONDITIONED SOLVER CP TIME      =     0.047
 PRECONDITIONED SOLVER ELAPSED TIME =     0.064

   *** ELEMENT RESULT CALCULATION TIMES
     TYPE    NUMBER   ENAME      TOTAL CP  AVE CP

        1      1440  SOLID185      0.219   0.000152
        2         8  SURF156       0.000   0.000000

   *** NODAL LOAD CALCULATION TIMES
     TYPE    NUMBER   ENAME      TOTAL CP  AVE CP

        1      1440  SOLID185      0.000   0.000000
        2         8  SURF156       0.000   0.000000
 *** LOAD STEP     1   SUBSTEP     1  COMPLETED.    CUM ITER =      1
 *** TIME =   1.00000         TIME INC =   1.00000      NEW TRIANG MATRIX


 *** ANSYS BINARY FILE STATISTICS
  BUFFER SIZE USED= 16384
        0.062 MB WRITTEN ON ELEMENT MATRIX FILE: top3d.emat
        2.500 MB WRITTEN ON RESULTS FILE: top3d.rst

 *** WARNING ***                         CP =       0.547   TIME= 22:46:19
 Specified range of 5 to 6 exceeds the allowed maximum of 2.  The ESEL   
 command is ignored.                                                     

 FINISH SOLUTION PROCESSING


 ***** ROUTINE COMPLETED *****  CP =         0.562



 *** ANSYS - ENGINEERING ANALYSIS SYSTEM  RELEASE 2020 R2          20.2     ***
 ANSYS Mechanical Enterprise                       
 20120530  VERSION=WINDOWS x64   22:46:19  NOV 01, 2023 CP=      0.562

 top3d                                                                         



          ***** ANSYS RESULTS INTERPRETATION (POST1) *****

 *** NOTE ***                            CP =       0.562   TIME= 22:46:19
 Reading results into the database (SET command) will update the current 
 displacement and force boundary conditions in the database with the     
 values from the results file for that load set.  Note that any          
 subsequent solutions will use these values unless action is taken to    
 either SAVE the current values or not overwrite them (/EXIT,NOSAVE).    

 STORE STRAIN_E FROM ITEM=SENE  FOR ALL SELECTED ELEMENTS

 VECTOR GET OPERATION  strain_e  VECTOR LENGTH=    2240
 NAME= ELEM         1  ETAB  STRAIN_E
 ITLVL=       2

 *** WARNING ***                         CP =       0.562   TIME= 22:46:19
 Some entities requested in the *VGET were undefined.                    

 OPENED FILE= strain_energy.txt FOR COMMAND FILE DATA 


  COMMAND FILE CLOSED 


 SET PARAMETER DIMENSIONS ON  NODAL_SOLUTION_U
  TYPE=ARRA  DIMENSIONS=     1872        3        1

 VECTOR GET OPERATION  NODAL_SOLUTION_U(1,1)  VECTOR LENGTH=    1872
 NAME= NODE         1  U     X   

 VECTOR GET OPERATION  NODAL_SOLUTION_U(1,2)  VECTOR LENGTH=    1872
 NAME= NODE         1  U     Y   

 VECTOR GET OPERATION  NODAL_SOLUTION_U(1,3)  VECTOR LENGTH=    1872
 NAME= NODE         1  U     Z   

 OPENED FILE= nodal_solution_u.txt FOR COMMAND FILE DATA 


  COMMAND FILE CLOSED 


 SET PARAMETER DIMENSIONS ON  NODAL_SOLUTION_STRESS
  TYPE=ARRA  DIMENSIONS=     1872        1        1

 VECTOR GET OPERATION  NODAL_SOLUTION_STRESS(1,1)  VECTOR LENGTH=    1872
 NAME= NODE         1  S     EQV 

 *** WARNING ***                         CP =       0.578   TIME= 22:46:19
 The selected element set contains mixed materials.                      
  This could invalidate error estimation.                                

 OPENED FILE= nodal_solution_stress.txt FOR COMMAND FILE DATA 


  COMMAND FILE CLOSED 


 SET PARAMETER DIMENSIONS ON  NODAL_SOLUTION_STRAIN
  TYPE=ARRA  DIMENSIONS=     1872        1        1

 VECTOR GET OPERATION  NODAL_SOLUTION_STRAIN(1,1)  VECTOR LENGTH=    1872
 NAME= NODE         1  EPTO  INT 

 OPENED FILE= nodal_solution_strain.txt FOR COMMAND FILE DATA 


  COMMAND FILE CLOSED 


 SELECT ALL ENTITIES OF TYPE= ALL  AND BELOW

 ALL CURRENT ANSYS DATA WRITTEN TO FILE NAME= top3d.db
  FOR POSSIBLE RESUME FROM THIS POINT

 EXIT THE ANSYS POST1 DATABASE PROCESSOR


 ***** ROUTINE COMPLETED *****  CP =         0.609



 PURGE ALL SOLUTION AND POST DATA
 SAVE ALL MODEL DATA

 ALL CURRENT ANSYS DATA WRITTEN TO FILE NAME= top3d.db
  FOR POSSIBLE RESUME FROM THIS POINT


 NUMBER OF WARNING MESSAGES ENCOUNTERED=          8
 NUMBER OF ERROR   MESSAGES ENCOUNTERED=          0

+--------------------- A N S Y S   S T A T I S T I C S ------------------------+

Release: 2020 R2            Build: 20.2       Update: UP20200601   Platform: WINDOWS x64 
Date Run: 11/01/2023   Time: 22:46     Process ID: 13752
Operating System: Windows 10  (Build: 22621)

Processor Model: AMD Ryzen 7 7735H with Radeon Graphics

Compiler: Intel(R) FORTRAN Compiler Version 19.0.0  (Build: 20190206)
          Intel(R) C/C++ Compiler Version 19.0.0  (Build: 20190206)
          Intel(R) Math Kernel Library Version 2020.0.0 Product Build 20191125

Number of machines requested            :    1
Total number of cores available         :   16
Number of physical cores available      :    8
Number of processes requested           :    1
Number of threads per process requested :    2
Total number of cores requested         :    2 (Shared Memory Parallel)                    

GPU Acceleration: Not Requested

Job Name: top3d
Input File: D:\CodeSave\GitCode\Topology-optimization-of-structure-via-simp-methodNEW\ANSYS\results3D\top3d_rinf.txt
Working Directory: D:\CodeSave\GitCode\Topology-optimization-of-structure-via-simp-methodNEW\ANSYS\results3D

Total CPU time for main thread                    :        0.5 seconds
Total CPU time summed for all threads             :        0.6 seconds

Elapsed time spent obtaining a license            :        0.7 seconds
Elapsed time spent pre-processing model (/PREP7)  :        0.0 seconds
Elapsed time spent solution - preprocessing       :        0.0 seconds
Elapsed time spent computing solution             :        0.2 seconds
Elapsed time spent solution - postprocessing      :        0.0 seconds
Elapsed time spent post-processing model (/POST1) :        0.1 seconds
 
Equation solver used                              :            PCG (symmetric)
Equation solver computational rate                :       10.4 Gflops

Maximum total memory used                         :       25.0 MB
Maximum total memory allocated                    :     2112.0 MB
Total physical memory available                   :         15 GB

Total amount of I/O written to disk               :        0.0 GB
Total amount of I/O read from disk                :        0.0 GB

+------------------ E N D   A N S Y S   S T A T I S T I C S -------------------+


 *---------------------------------------------------------------------------*
 |                                                                           |
 |                            ANSYS RUN COMPLETED                            |
 |                                                                           |
 |---------------------------------------------------------------------------|
 |                                                                           |
 | Ansys 2020 R2               Build 20.2         UP20200601     WINDOWS x64 |
 |                                                                           |
 |---------------------------------------------------------------------------|
 |                                                                           |
 | Database Requested(-db)  1024 MB    Scratch Memory Requested      1024 MB |
 | Maximum Database Used       6 MB    Maximum Scratch Memory Used     19 MB |
 |                                                                           |
 |---------------------------------------------------------------------------|
 |                                                                           |
 |        CP Time      (sec) =          0.609       Time  =  22:46:20        |
 |        Elapsed Time (sec) =          5.000       Date  =  11/01/2023      |
 |                                                                           |
 *---------------------------------------------------------------------------*
