/batch
/config,noeldb,1     ! force off writing results to database
*get,_wallstrt,active,,time,wall
! ANSYS input file written by Workbench version 2020 R2
! File used for geometry attach: C:\Users\Zeke\AppData\Local\Temp\WB_DESKTOP-JQNSQMJ_Zeke_10108_2\unsaved_project_files\dp0\SYS\DM\SYS.agdb
/title,unsaved_project--Static Structural (A5)
*DIM,_wb_ProjectScratch_dir,string,248
_wb_ProjectScratch_dir(1) = 'C:\Users\Zeke\AppData\Local\Temp\WB_DESKTOP-JQNSQMJ_Zeke_10108_2\unsaved_project_files\dp0\SYS\MECH\'
*DIM,_wb_SolverFiles_dir,string,248
_wb_SolverFiles_dir(1) = 'C:\Users\Zeke\AppData\Local\Temp\WB_DESKTOP-JQNSQMJ_Zeke_10108_2\unsaved_project_files\dp0\SYS\MECH\'
*DIM,_wb_userfiles_dir,string,248
_wb_userfiles_dir(1) = 'C:\Users\Zeke\AppData\Local\Temp\WB_DESKTOP-JQNSQMJ_Zeke_10108_2\unsaved_project_files\user_files\'
/com,--- Data in consistent MKS units. See Solving Units in the help system for more information.
/units,MKS
/nopr
/wb,file,start              !  signify a WB generated input file
/prep7
! Turn off shape checking because checks already performed inside WB mesher.
! See help system for more information.
SHPP,OFF,,NOWARN
/nolist
etcon,set             ! allow ANSYS to choose best KEYOP's for 180x elements
/com,*********** Nodes for the whole assembly ***********
nblock,3,,7720
(1i9,3e20.9e3)
        1     1.866666667E+01     1.250000000E+00     1.250000000E+00
        2     1.866666667E+01     1.250000000E+00     2.500000000E+00
        3     1.866666667E+01     1.250000000E+00     3.750000000E+00
        4     1.866666667E+01     1.250000000E+00     5.000000000E+00
        5     1.866666667E+01     1.250000000E+00     6.250000000E+00
        6     1.866666667E+01     1.250000000E+00     7.500000000E+00
        7     1.866666667E+01     1.250000000E+00     8.750000000E+00
        8     1.733333333E+01     1.250000000E+00     1.250000000E+00
        9     1.733333333E+01     1.250000000E+00     2.500000000E+00
       10     1.733333333E+01     1.250000000E+00     3.750000000E+00
       11     1.733333333E+01     1.250000000E+00     5.000000000E+00
       12     1.733333333E+01     1.250000000E+00     6.250000000E+00
       13     1.733333333E+01     1.250000000E+00     7.500000000E+00
       14     1.733333333E+01     1.250000000E+00     8.750000000E+00
       15     1.600000000E+01     1.250000000E+00     1.250000000E+00
       16     1.600000000E+01     1.250000000E+00     2.500000000E+00
       17     1.600000000E+01     1.250000000E+00     3.750000000E+00
       18     1.600000000E+01     1.250000000E+00     5.000000000E+00
       19     1.600000000E+01     1.250000000E+00     6.250000000E+00
       20     1.600000000E+01     1.250000000E+00     7.500000000E+00
! ... 7000 like lines cut
/wb,elem,start            !  set before creation of elements
/com,*********** Elements for Body 1 "Solid" ***********
et,1,186
keyo,1,2,1          ! set full integration on SOLID186
eblock,19,solid,,1440
(19i9)
        1        1        1        1        0        0        0        0       20        0        1        1     1675     1658     1545     1232     1742     1657     1656
     1878     6626     6416     1877     5768     6624     6622     5767     1876     6670     6623     6415
        1        1        1        1        0        0        0        0       20        0        2        1     1545     1658     1675        2     1559     1659     1686
     1877     6416     6626     1878     1882     6457     6628     1883     1873     6414     6625     6669
        1        1        1        1        0        0        0        0       20        0        3        2     1559     1659     1686        3     1573     1660     1697
     1882     6457     6628     1883     1887     6485     6630     1888     1879     6456     6627     6692
        1        1        1        1        0        0        0        0       20        0        4        3     1573     1660     1697        4     1587     1661     1708
     1887     6485     6630     1888     1892     6513     6632     1893     1884     6484     6629     6714
        1        1        1        1        0        0        0        0       20        0        5        4     1587     1661     1708        5     1601     1662     1719
     1892     6513     6632     1893     1897     6541     6634     1898     1889     6512     6631     6736
        1        1        1        1        0        0        0        0       20        0        6        5     1601     1662     1719        6     1615     1663     1730
     1897     6541     6634     1898     1902     6569     6636     1903     1894     6540     6633     6758
        1        1        1        1        0        0        0        0       20        0        7        6     1615     1663     1730        7     1629     1664     1741
     1902     6569     6636     1903     1907     6596     6637     1908     1899     6568     6635     6780
        1        1        1        1        0        0        0        0       20        0        8        7     1629     1664     1741     1233     1414     1413     1412
     1907     6596     6637     1908     5772     6155     6153     5771     1906     6158     6156     6154
        1        1        1        1        0        0        0        0       20        0        9        1       99     1674     1675     1232     1218     1743     1742
     1875     2290     6666     1878     5738     5739     6792     5768     1876     2289     6668     6670
        1        1        1        1        0        0        0        0       20        0       10        1     1675     1674       99        2     1686     1685      100
     1878     6666     2290     1875     1883     6690     2294     1881     1873     6669     6667     2286
! ... 2861 like lines cut
!Material Id = {39B70F5B-A9A5-4675-AE39-5EE04D29448C}
/wb,elem,end               !  done creating elements
/com,*********** Send User Defined Coordinate System(s) ***********
csys,0
toffst,273.15,  ! Temperature offset from absolute zero
/com,*********** Set Reference Temperature ***********
tref,22.
/wb,mat,start              !  starting to send materials
/com,*********** Send Materials ***********
Temperature = 'TEMP' ! Temperature
MP,DENS,1,7850,	! kg m^-3
MP,ALPX,1,1.2e-05,	! C^-1
MP,C,1,434,	! J kg^-1 C^-1
MP,KXX,1,60.5,	! W m^-1 C^-1
MP,RSVX,1,1.7e-07,	! kg m^3 A^-2 s^-3
MP,EX,1,200000000000,	! Pa
MP,NUXY,1,0.3,
MP,MURX,1,10000,

/wb,mat,end                !  done sending materials
!************************* Model Summary ********************
!Solid,	Structural Steel,	matid,	1
!************************* End Model Summary ********************
! get the diagonal of the bounding box. Needed later for other things
*get,_xmin,node,,mnloc,x
*get,_ymin,node,,mnloc,y
*get,_zmin,node,,mnloc,z
*get,_xmax,node,,mxloc,x
*get,_ymax,node,,mxloc,y
*get,_zmax,node,,mxloc,z
_ASMDIAG=(_xmax-_xmin)*(_xmax-_xmin)+(_ymax-_ymin)*(_ymax-_ymin)+(_zmax-_zmin)*(_zmax-_zmin)
_ASMDIAG=SQRT(_ASMDIAG)
/wb,contact,start          !  starting to send contact
/wb,contact,end            !  done creating contacts
/golist
/wb,load,start             !  starting to send loads
/com,*********** Fixed Supports ***********
CMBLOCK,_FIXEDSU,NODE,      329
(8i10)
      1428      1429      1430      1431      1432      1433      1434      1435
      1436      1437      1438      1439      1440      1441      1442      1443
      1444      1445      1446      1447      1448      1449      1450      1451
      1452      1453      1454      1455      1456      1457      1458      1459
      1460      1461      1462      1463      1464      1465      1466      1467
      1468      1469      1470      1471      1472      1473      1474      1475
      1476      1477      1478      1479      1480      1481      1482      1483
      1484      1485      1486      1487      1488      1489      1490      1491
      1492      1493      1494      1495      1496      1497      1498      1499
      1500      1501      1502      1503      1504      1505      1506      1507
      1508      1509      1510      1511      1512      1513      1514      1515
      1516      1517      1518      1519      1520      1521      1522      1523
      1524      1525      1526      1527      1528      1529      1530      1531
      1532      1533      1534      1535      1536      1537      1538      1539
      1540      1541      1542      1543      1544      6185      6186      6187
      6188      6189      6190      6191      6192      6193      6194      6195
      6196      6197      6198      6199      6200      6201      6202      6203
      6204      6205      6206      6207      6208      6209      6210      6211
      6212      6213      6214      6215      6216      6217      6218      6219
      6220      6221      6222      6223      6224      6225      6226      6227
! ... 22 like lines cut
cmsel,s,_FIXEDSU
d,all,all
nsel,all
/com,*********** Define Force Using Surface Effect Elements ***********
local,12,0,0.,0.,0.,0.,0.,0.
csys,0
et,2,156
keyop,2,5,1         !  No orientation node
eblock,10,,,8
(15i9)
     2233        2        2        2       12     1658     1657     6623
     2234        2        2        2       12     1658     1659     6625
     2235        2        2        2       12     1659     1660     6627
     2236        2        2        2       12     1660     1661     6629
     2237        2        2        2       12     1661     1662     6631
     2238        2        2        2       12     1662     1663     6633
     2239        2        2        2       12     1663     1664     6635
     2240        2        2        2       12     1664     1413     6156
-1
esel,s,type,,2
keyop,2,2,1                ! Apply load in local coordinate system
keyop,2,7,1                ! Use original area so load is constant in large deformation
esel,all
/gst,on,on
fini
*get,_numnode,node,0,count
*get,_numelem,elem,0,count
*get, _MAXELEMNUM, elem, 0, NUM, MAX
*get, _MAXNODENUM, node, 0, NUM, MAX
*get, _MAXELEMTYPE, etyp, 0, NUM, MAX
*get, _MAXREALCONST, real, 0, NUM, MAX
/go
/wb,load,end               !  done creating loads
/com,--- Number of total nodes = %_numnode%
/com,--- Number of contact elements = 8
/com,--- Number of spring elements = 0
/com,--- Number of bearing elements = 0
/com,--- Number of solid elements = 1440
/com,--- Number of condensed parts = 0
/com,--- Number of total elements = %_numelem%
*get,_wallbsol,active,,time,wall
/com,****************************************************************************
/com,*************************    SOLUTION       ********************************
/com,****************************************************************************
/solu
antype,0                   ! static analysis
_thickRatio=  1     ! Ratio of thick parts in the model
eqsl,pcg,1e-8,,,,,,1
cntr,print,1               ! print out contact info and also make no initial contact an error
dmpoption,emat,no             ! Don't combine emat file for DANSYS
dmpoption,esav,no             ! Don't combine esav file for DANSYS
nldiag,cont,iter           ! print out contact info each equilibrium iteration
rescontrol,,none                 ! Do not keep any restart files
/com,****************************************************
/com,******************* SOLVE FOR LS 1 OF 1 ****************
esel,s,type,,2
nsle
sfe,all,1,pres,1,0.
sfe,all,2,pres,1,-10.
sfe,all,3,pres,1,0.
nsel,all
esel,all
/nopr
/gopr
nsub,1,1,1
time,1.
outres,erase
outres,all,none
outres,nsol,all,
outres,rsol,all
outres,eangl,all
outres,etmp,all
outres,veng,all
outres,strs,all,
outres,epel,all,
outres,eppl,all,
outres,cont,all,
! *********** WB SOLVE COMMAND ***********
! check interactive state
*get,ANSINTER_,active,,int
*if,ANSINTER_,ne,0,then
/eof
*endif
solve
/com *************** Write FE CONNECTORS ********* 
CEWRITE,file,ce,,INTE
/com,****************************************************
/com,*************** FINISHED SOLVE FOR LS 1 *************
*get,_wallasol,active,,time,wall
/nopr
*get,_numnode,node,0,count
*get,_numelem,elem,0,count
*get, _MAXELEMNUM, elem, 0, NUM, MAX
*get, _MAXNODENUM, node, 0, NUM, MAX,,,INTERNAL
*get, _MAXELEMTYPE, etyp, 0, NUM, MAX
*get, _MAXREALCONST, real, 0, NUM, MAX
/gopr
*get,_PCGITER,active,,solu,cgiter
/post1
xmlo,ENCODING,ISO-8859-1
xmlo,parm
/xml,parm,xml
fini
/gopr
*get,_walldone,active,,time,wall
_preptime=(_wallbsol-_wallstrt)*3600
_solvtime=(_wallasol-_wallbsol)*3600
_posttime=(_walldone-_wallasol)*3600
_totaltim=(_walldone-_wallstrt)*3600
*get,_dlbratio,active,0,solu,dlbr
*get,_combtime,active,0,solu,comb
/com,--- Total number of nodes = %_numnode%
/com,--- Total number of elements = %_numelem%
/com,--- Element load balance ratio = %_dlbratio%
/com,--- Time to combine distributed files = %_combtime%
/wb,file,end               ! done with WB generated input
